-------------------------------
MW. 	01-10-2000
Bugs Fixes -
-----------
.subckt inside another parametrized .subckt works right now.


----------------------------------------------------------------------
    Version 0.11    January 2, 1996
----------------------------------------------------------------------
No new features.

Bug Fixes -
-----------

1. Duplicate name clash problem with parameterized subckt calls from
within a .subckt....ends block.

2. Writing continuation lines to the output file occaisionally choked.


----------------------------------------------------------------------
    Version 0.10    October 10, 1996
----------------------------------------------------------------------
Original release.
