****************************************************************************
*
* WARNING : please consider following remarks before usage
*
* 1) All models are a tradeoff between accuracy and complexity (ie. simulation
*    time).
*
* 2) Macromodels are not a substitute to breadboarding, they rather confirm the
*    validity of a design approach and help to select surrounding component values.
*
* 3) A macromodel emulates the NOMINAL performance of a TYPICAL device within
*    SPECIFIED OPERATING CONDITIONS (ie. temperature, supply voltage, etc.).
*    Thus the macromodel is often not as exhaustive as the datasheet, its goal
*    is to illustrate the main parameters of the product.
*
* 4) Data issued from macromodels used outside of its specified conditions
*    (Vcc, Temperature, etc) or even worse: outside of the device operating
*    conditions (Vcc, Vicm, etc) are not reliable in any way.
*
****************************************************************************

*=========================
*=========================
*
*OP-AMPS
*
*=========================
*=========================

** Standard Linear Ics Macromodels, 1993. 
** CONNECTIONS :
* 1 INVERTING INPUT
* 2 NON-INVERTING INPUT
* 3 OUTPUT
* 4 POSITIVE POWER SUPPLY
* 5 NEGATIVE POWER SUPPLY
.SUBCKT LFXXX 2 1 4 5 3
**********************************************************
.MODEL MDTH D IS=1E-8 KF=5.306587E-14 CJO=10F
* INPUT STAGE
CIP 2 5 1.000000E-12
CIN 1 5 1.000000E-12
EIP 10 5 2 5 1
EIN 16 5 1 5 1
RIP 10 11 1.130435E+00
RIN 15 16 1.130435E+00
RIS 11 15 2.476554E-01
DIP 11 12 MDTH 400E-12
DIN 15 14 MDTH 400E-12
VOFP 12 13 DC 0
VOFN 13 14 DC 0
IPOL 13 5 2.300000E-04
CPS 11 15 4.091333E-08
DINN 17 13 MDTH 400E-12
VIN 17 5 3.000000e+00
DINR 15 18 MDTH 400E-12
VIP 4 18 0.000000E+00
FCP 4 5 VOFP 6.096957E+00
FCN 5 4 VOFN 6.096957E+00
* AMPLIFYING STAGE
FIP 5 19 VOFP 8.217391E+02
FIN 5 19 VOFN 8.217391E+02
RG1 19 5 1.112645E+06
RG2 19 4 1.112645E+06
CC 19 29 1.300000E-08
HZTP 30 29 VOFP 7.743183E+02
HZTN  5 30 VOFN 7.743183E+02
DOPM 19 22 MDTH 400E-12
DONM 21 19 MDTH 400E-12
HOPM 22 28 VOUT 3.750000E+03
VIPM 28 4 1.500000E+02
HONM 21 27 VOUT 3.750000E+03
VINM 5 27 1.500000E+02
EOUT 26 23 19 5 1
VOUT 23 5 0
ROUT 26 3 9.384786E+01
COUT 3 5 1.000000E-12
DOP 19 25 MDTH 400E-12
VOP 4 25 3.259753E+00
DON 24 19 MDTH 400E-12
VON 24 5 3.259753E+00
.ENDS LFXXX

* 1 INVERTING INPUT
* 2 NON-INVERTING INPUT
* 3 OUTPUT
* 4 POSITIVE POWER SUPPLY
* 5 NEGATIVE POWER SUPPLY
.SUBCKT LMX01A 2 1 4 5 3
********************************************************
.MODEL MDTH D IS=1E-8 KF=1.025862E-15 CJO=10F
* INPUT STAGE
CIP 2 5 1.000000E-12
CIN 1 5 1.000000E-12
EIP 10 5 2 5 1
EIN 16 5 1 5 1
RIP 10 11 1.625000E+01
RIN 15 16 1.625000E+01
RIS 11 15 7.476714E+01
DIP 11 12 MDTH 400E-12
DIN 15 14 MDTH 400E-12
VOFP 12 13 DC 0.000000E+00
VOFN 13 14 DC 0
IPOL 13 5 1.600000E-05
CPS 11 15 2.5E-09
DINN 17 13 MDTH 400E-12
VIN 17 5 0.000000e+00
DINR 15 18 MDTH 400E-12
VIP 4 18 0.000000E+00
FCP 4 5 VOFP 1.115000E+02
FCN 5 4 VOFN 1.115000E+02
FIBP 2 5 VOFP 1.875000E-04
FIBN 5 1 VOFN 1.875000E-04
* AMPLIFYING STAGE
FIP 5 19 VOFP 9.375000E+02
FIN 5 19 VOFN 9.375000E+02
RG1 19 5 9.981802E+05
RG2 19 4 9.981802E+05
CC 19 29 3.000000E-08
HZTP 30 29 VOFP 5.535733E+02
HZTN  5 30 VOFN 5.535733E+02
DOPM 19 22 MDTH 400E-12
DONM 21 19 MDTH 400E-12
HOPM 22 28 VOUT 5.000000E+03
VIPM 28 4 1.500000E+02
HONM 21 27 VOUT 5.000000E+03
VINM 5 27 1.500000E+02
EOUT 26 23 19 5 1
VOUT 23 5 0
ROUT 26 3 200
COUT 3 5 1.000000E-12
DOP 19 25 MDTH 400E-12
VOP 4 25 1.480450E+00
DON 24 19 MDTH 400E-12
VON 24 5 1.480450E+00
.ENDS LMX01A

* 1 INVERTING INPUT
* 2 NON-INVERTING INPUT
* 3 OUTPUT
* 4 POSITIVE POWER SUPPLY
* 5 NEGATIVE POWER SUPPLY
.SUBCKT LMX48 2 1 4 5 3
**********************************************************
.MODEL MDTH D IS=1E-8 KF=2.298361E-15 CJO=10F
* INPUT STAGE
CIP 2 5 1.000000E-12
CIN 1 5 1.000000E-12
EIP 10 5 2 5 1
EIN 16 5 1 5 1
RIP 10 11 1.857143E+01
RIN 15 16 1.857143E+01
RIS 11 15 1.225212E+02
DIP 11 12 MDTH 400E-12
DIN 15 14 MDTH 400E-12
VOFP 12 13 DC 0
VOFN 13 14 DC 0
IPOL 13 5 1.400000E-05
CPS 11 15 4.797971E-10
DINN 17 13 MDTH 400E-12
VIN 17 5 3.000000e+00
DINR 15 18 MDTH 400E-12
VIP 4 18 3.000000E+00
FCP 4 5 VOFP 3.685714E+01
FCN 5 4 VOFN 3.685714E+01
FIBP 2 5 VOFP 4.285714E-03
FIBN 5 1 VOFN 4.285714E-03
* AMPLIFYING STAGE
FIP 5 19 VOFP 1.178571E+02
FIN 5 19 VOFN 1.178571E+02
RG1 19 5 1.306798E+07
RG2 19 4 1.306798E+07
CC 19 29 3.000000E-09
HZTP 30 29 VOFP 1.422562E+03
HZTN  5 30 VOFN 1.422562E+03
DOPM 19 22 MDTH 400E-12
DONM 21 19 MDTH 400E-12
HOPM 22 28 VOUT 6.000000E+03
VIPM 28 4 1.500000E+02
HONM 21 27 VOUT 6.000000E+03
VINM 5 27 1.500000E+02
EOUT 26 23 19 5 1
VOUT 23 5 0
ROUT 26 3 200
COUT 3 5 1.000000E-12
DOP 19 25 MDTH 400E-12
VOP 4 25 2.550978E+00
DON 24 19 MDTH 400E-12
VON 24 5 2.550978E+00
.ENDS LMX48

** CONNECTIONS :
* 1 INVERTING INPUT
* 2 NON-INVERTING INPUT
* 3 OUTPUT
* 4 POSITIVE POWER SUPPLY
* 5 NEGATIVE POWER SUPPLY
.SUBCKT LMXXXX_ESD 2 1 4 5 3
***************************
.MODEL MDTH D IS=1E-8 KF=3.104131E-15 CJO=10F
D1A 1 4 MDTH 400E-12
D1B 5 1 MDTH 400E-12
D2A 2 4 MDTH 400E-12
D2B 5 2 MDTH 400E-12
* INPUT STAGE
CIP 2 5 1.000000E-12
CIN 1 5 1.000000E-12
EIP 10 5 2 5 1
EIN 16 5 1 5 1
RIP 10 11 2.600000E+01
RIN 15 16 2.600000E+01
RIS 11 15 2.003862E+02
DIP 11 12 MDTH 400E-12
DIN 15 14 MDTH 400E-12
VOFP 12 13 DC 0 
VOFN 13 14 DC 0
IPOL 13 5 1.000000E-05
CPS 11 15 3.783376E-09
DINN 17 13 MDTH 400E-12
VIN 17 5 0.000000e+00
DINR 15 18 MDTH 400E-12
VIP 4 18 2.000000E+00
FCP 4 5 VOFP 3.400000E+01
FCN 5 4 VOFN 3.400000E+01
FIBP 2 5 VOFN 2.000000E-03
FIBN 5 1 VOFP 2.000000E-03
* AMPLIFYING STAGE
FIP 5 19 VOFP 3.600000E+02
FIN 5 19 VOFN 3.600000E+02
RG1 19 5 3.652997E+06
RG2 19 4 3.652997E+06
CC 19 5 6.000000E-09
DOPM 19 22 MDTH 400E-12
DONM 21 19 MDTH 400E-12
HOPM 22 28 VOUT 7.500000E+03
VIPM 28 4 1.500000E+02
HONM 21 27 VOUT 7.500000E+03
VINM 5 27 1.500000E+02
EOUT 26 23 19 5 1
VOUT 23 5 0
ROUT 26 3 20
COUT 3 5 1.000000E-12
DOP 19 25 MDTH 400E-12
VOP 4 25 2.242230E+00
DON 24 19 MDTH 400E-12
VON 24 5 7.922301E-01
.ENDS LMXXXX_ESD	

** Standard Linear Ics Macromodels, 1993. 
** CONNECTIONS :
* 1 INVERTING INPUT
* 2 NON-INVERTING INPUT
* 3 OUTPUT
* 4 POSITIVE POWER SUPPLY
* 5 NEGATIVE POWER SUPPLY
.SUBCKT LMXXXX 2 1 4 5 3
***************************
.MODEL MDTH D IS=1E-8 KF=3.104131E-15 CJO=10F
* INPUT STAGE
CIP 2 5 1.000000E-12
CIN 1 5 1.000000E-12
EIP 10 5 2 5 1
EIN 16 5 1 5 1
RIP 10 11 2.600000E+01
RIN 15 16 2.600000E+01
RIS 11 15 2.003862E+02
DIP 11 12 MDTH 400E-12
DIN 15 14 MDTH 400E-12
VOFP 12 13 DC 0 
VOFN 13 14 DC 0
IPOL 13 5 1.000000E-05
CPS 11 15 3.783376E-09
DINN 17 13 MDTH 400E-12
VIN 17 5 0.000000e+00
DINR 15 18 MDTH 400E-12
VIP 4 18 2.000000E+00
FCP 4 5 VOFP 3.400000E+01
FCN 5 4 VOFN 3.400000E+01
FIBP 2 5 VOFN 2.000000E-03
FIBN 5 1 VOFP 2.000000E-03
* AMPLIFYING STAGE
FIP 5 19 VOFP 3.600000E+02
FIN 5 19 VOFN 3.600000E+02
RG1 19 5 3.652997E+06
RG2 19 4 3.652997E+06
CC 19 5 6.000000E-09
DOPM 19 22 MDTH 400E-12
DONM 21 19 MDTH 400E-12
HOPM 22 28 VOUT 7.500000E+03
VIPM 28 4 1.500000E+02
HONM 21 27 VOUT 7.500000E+03
VINM 5 27 1.500000E+02
EOUT 26 23 19 5 1
VOUT 23 5 0
ROUT 26 3 20
COUT 3 5 1.000000E-12
DOP 19 25 MDTH 400E-12
VOP 4 25 2.242230E+00
DON 24 19 MDTH 400E-12
VON 24 5 7.922301E-01
.ENDS LMXXXX

** Standard Linear Ics Macromodels, 1993.
** CONNECTIONS :
* 1 INVERTING INPUT
* 2 NON-INVERTING INPUT
* 3 OUTPUT
* 4 POSITIVE POWER SUPPLY
* 5 NEGATIVE POWER SUPPLY
.SUBCKT LM833 2 1 4 5 3
**********************************************************
.MODEL MDTH D IS=1E-8 KF=2.286238E-16 CJO=10F
* INPUT STAGE
CIP 2 5 1.200000E-11
CIN 1 5 1.200000E-11
EIP 10 5 2 5 1
EIN 16 5 1 5 1
RIP 10 11 2.363636E+00
RIN 15 16 2.363636E+00
RIS 11 15 1.224040E+01
DIP 11 12 MDTH 400E-12
DIN 15 14 MDTH 400E-12
VOFP 12 13 DC 0
VOFN 13 14 DC 0
IPOL 13 5 1.100000E-04
CPS 11 15 2.35E-09
DINN 17 13 MDTH 400E-12
VIN 17 5 1.000000e+00
DINR 15 18 MDTH 400E-12
VIP 4 18 1.000000E+00
FCP 4 5 VOFP 1.718182E+01
FCN 5 4 VOFN 1.718182E+01
FIBP 2 5 VOFN 4.545455E-03
FIBN 5 1 VOFP 4.545455E-03
* AMPLIFYING STAGE
FIP 5 19 VOFP 9.545455E+02
FIN 5 19 VOFN 9.545455E+02
CC 19 29 1.500000E-08
HZTP 30 29 VOFP 1.523529E+02
HZTN  5 30 VOFN 1.523529E+02
DOPM 51 22 MDTH 400E-12
DONM 21 52 MDTH 400E-12
HOPM 22 28 VOUT 5.172414E+03
VIPM 28 4 1.500000E+02
HONM 21 27 VOUT 4.054054E+03
VINM 5 27 1.500000E+02
DBIDON1 19 53 MDTH 400E-12
V1 51 53 0.68
DBIDON2 54 19 MDTH 400E-12
V2 54 52 0.68
RG11 51 5 3.04E+05
RG12 51 4 3.04E+05
RG21 52 5 0.6072E+05
RG22 52 4 0.6072E+05
E1 50 40 51 0 1 
E2 40 39 52 0 1
EDEC1 38 39 4 0 0.5
EDEC2 0 38 5 0 0.5
DOP 51 25 MDTH 400E-12
VOP 4 25 1.474575E+00
DON 24 52 MDTH 400E-12
VON 24 5 1.474575E+00
RAJUS 50 5 1E12
GCOMP 5 4 4 5 8.1566068E-04
RPM1 5 80 1E+06
RPM2 4 80 1E+06
GAVPH 5 82 50 80 3.26E-03
RAVPHGH 82 4 613
RAVPHGB 82 5 613
RAVPHDH 82 83 1000
RAVPHDB 82 84 1000
CAVPHH 4 83 0.159E-09
CAVPHB 5 84 0.159E-09
EOUT 26 23 82 5 1
VOUT 23 5 0
ROUT 26 3 4.780354E+01
COUT 3 5 1.000000E-12
.ENDS LM833

****************************************************************************
****
***  LMV3x  Spice macromodel subckt 
***
***  Version 2.0 (March 2011)
****                      
************ CONNECTIONS: 
****             NON-INVERTING INPUT
****              |  INVERTING INPUT
****              |   |   POSITIVE POWER SUPPLY
****              |   |    |   NEGATIVE POWER SUPPLY
****              |   |    |    |  OUTPUT  
****              |   |    |    |   |     
****              |   |    |    |   |  
.SUBCKT   LMV3X  VP  VM  VCCP VCCN  VS
    M_NMOS2 VO_DIFF_MINUS VM VEE_N VCCN_ENHANCED MOS_N L={L} W={W}
    M_NMOS1 VO_DIFF_PLUS NET216 VEE_N VCCN_ENHANCED MOS_N L={L} W={W}
    V_OUTVLIM_LOW NET208 NET209 DC {Vd_compensazione}
    V_OUTVLIM_HIGH NET233 NET211 DC {Vd_compensazione}
    VREADIO NET273 VS DC 0
    VVLIM_LOW_VB NET214 NET215 DC -770m
    VOS NET216 VP DC 0
    VPROT_IN_P_VCCP NET218 NET247 DC {V_DPROT}
    V_ENHANCE_VCCN VCCN_ENHANCED VCCN DC {VCCN_enhance}
    VVLIM_HIGH_VB NET237 NET223 DC -770m
    V_ENHANCE_VCCP VCCP_ENHANCED VCCP DC {VCCP_enhance}
    VPROT_IN_M_VCCN NET226 NET398 DC {V_DPROT}
    VPROT_IN_P_VCCN NET228 NET229 DC {V_DPROT}
    VPROT_IN_M_VCCP NET386 NET239 DC {V_DPROT}
    D_OUTVLIM_HIGH NET276 NET233 DIODE_NOVd
    D_OUTVLIM_LOW NET209 NET235 DIODE_NOVd
    DVLIM_HIGH_VB VB NET237 DIODE_VLIM
    DPROT_IN_M_VCCP VM NET239 DIODE_VLIM
    DVLIM_LOW_VB NET215 VB DIODE_VLIM
    DPROT_IN_M_VCCN NET226 VM DIODE_VLIM
    DILIM_SINK VB_3_SINK VB_3 DIODE_ILIM
    DPROT_IN_P_VCCP NET216 NET247 DIODE_VLIM
    DILIM_SOURCE VB_3 VB_3_SOURCE DIODE_ILIM
    DPROT_IN_P_VCCN NET228 NET216 DIODE_VLIM
    C_RO2_1 VB_2 VREF 500p
    CIN_DIFF VM VP {CIN_DIFF}
    CIN_CM_VP VP VREF {CIN_CM_VP}
    CIN_CM_VM VM VREF {CIN_CM_VM}
    CDIFF_PARASITIC VO_DIFF_PLUS VO_DIFF_MINUS 30p
    CCOMP VB VB_2 {Ccomp}
    E_RO1 VB_3 NET273 VALUE={IF(I(VreadIo)>0,
+V(Ro1_Voh)*I(VreadIo),V(Ro1_Vol)*I(VreadIo))}

* Eldo:
*    E_VOHNORL NET276 VB_3 PWL(1) VCCP VCCN ( 1.8 , 16m ) ( 3.0 , 21m ) (
*    +5.0 , 28.5m )
*    E_RO1_VOH RO1_VOH 0 PWL(1) VCCP VCCN ( 1.8 , 60 ) ( 3.0 , 57 ) ( 5.0 ,
*    +41 )
*    E_RO1_VOL RO1_VOL 0 PWL(1) VCCP VCCN ( 1.8 , 38 ) ( 3.0 , 60 ) (
*    +5.0 , 42 )
*    E_VOLNORL VB_3 NET235 PWL(1) VCCP VCCN ( 1.8 , 24m ) ( 3.0 , 26m ) ( 5.0 ,
*    +32m )
* PSpice:
*    E_VOHNORL NET276 VB_3 VALUE={TABLE( V(VCCP,VCCN) , 1.8 , 16m , 3.0 , 21m ,
*+5.0 , 28.5m )}
    E_VOHNORL NET276 VB_3 POLY(1) VCCP VCCN 0.00779687499999999
+0.0047916666666666715 -1.3020833333333404E-4
    *E_RO1_VOH RO1_VOH 0 VALUE={TABLE( V(VCCP,VCCN) , 1.8 , 60 , 3.0 , 57 , 5.0 ,
*+41 )}
    E_RO1_VOH RO1_VOH 0 POLY(1) VCCP VCCN 55.21875 5.75 -1.71875
    *E_VOLNORL VB_3 NET235 VALUE={TABLE( V(VCCP,VCCN) , 1.8 , 24m , 3.0 , 26m ,
*+5.0 , 32m )}
    E_VOLNORL VB_3 NET235 POLY(1) VCCP VCCN 0.02325
+-3.3333333333334427E-4 4.166666666666681E-4
    *E_RO1_VOL RO1_VOL 0 VALUE={TABLE( V(VCCP,VCCN) , 1.8 , 38 , 3.0 , 60 , 5.0 ,
*+42 )}
    E_RO1_VOL RO1_VOL 0 POLY(1) VCCP VCCN -41.125 59.33333333333332
+-8.541666666666664

    E50 NET211 0 VCCP 0 1.0
    E_ICCSAT_HIGH ICC_OUT_HIGH 0 POLY(1) VCCP VCCN 3.9739130434782604E-5
+5.652173913043478E-6
    E51 NET208 0 VCCN 0 1.0
    E_ICCSAT_LOW ICC_OUT_LOW 0 POLY(1) VCCP VCCN 0    
    EILIM_SINK VB_3_SINK VDEP_SINK VB_3 0 1.0
    E64 IO_VAL 0 VALUE={I(VreadIo)}
    EMEAS_VB_VREF VB_VREF 0 VB VREF 1.0
    EMEAS_VOUT_DIFF VOUT_DIFF 0 VO_DIFF_PLUS VO_DIFF_MINUS 1.0
    E_VDEP_SOURCE_2 VAL_VDEP_SOURCE_FILTERED 0
+VALUE={IF(V(val_vdep_source)>=0, 0, V(val_vdep_source))}
    E_VDEP_SOURCE_1 VAL_VDEP_SOURCE 0 VALUE={ (217.76086956521732      +
+4.347826086956525*V(Vccp,Vccn))  -5000*I(VreadIo) }
    E_VDEP_SOURCE_3 VDEP_SOURCE 0 VALUE={IF( abs(I(VreadIo))<1m , 0 ,
+V(val_vdep_source_filtered))}
    EVLIM_HIGH_VB NET223 0 VCCP 0 1.0
    E_VDEP_SINK_1 VAL_VDEP_SINK 0 VALUE={ ( -217.76086956521732
+-4.347826086956525*V(Vccp,Vccn) ) -5000*I(VreadIo)}
    E_VDEP_SINK_2 VAL_VDEP_SINK_FILTERED 0
+VALUE={IF(V(val_vdep_sink)<=0 , 0 , V(val_vdep_sink))}
    EVLIM_LOW_VB NET214 0 VCCN 0 1.0
    E2_REF NET400 0 VCCN 0 1.0
    E_VREF VREF 0 NET394 0 1.0
    G_ICC VCCP VCCN POLY(1) VCCP VCCN 1.2204347826086958E-4
+7.3913043478260745E-6
    E_VDEP_SINK_3 VDEP_SINK 0 VALUE={IF( abs(I(VreadIo))<1m , 0 ,
+V(val_vdep_sink_filtered))}
    E1_REF NET368 0 VCCP 0 1.0
    EILIM_SOURCE VB_3_SOURCE VDEP_SOURCE VB_3 0 1.0
    E_SR_VCC_MODULATION VOUT_DIFF__SR_VCC 0 VALUE={V(Vout_diff)*(
+0.5869565217391304 + 0.0826086956521739*V(Vccp,Vccn) )}
    R1 VB VREF {R1}
    RIN_CM_VM VREF VM {RIN_CM_VM}
    RO2_1 VB_2 VREF {Ro2_1}
    RIN_DIFF VP VM {RIN_DIFF}
    R_ICCSAT_LOW ICC_OUT_LOW 0 1K
    RPROT_IN_P_VCCP NET218 VCCP {RPROT_VCCP}
    RPROT_IN_M_VCCP VCCP NET386 {RPROT_VCCP}
    RO2_2 VB_3 VB_2 {Ro2_2}
    RIN_CM_VP VREF VP {RIN_CM_VP}
    RD1 VCCP_ENHANCED VO_DIFF_PLUS {RD}
    RD2 VCCP_ENHANCED VO_DIFF_MINUS {RD}
    R1_REF NET368 NET394 1Meg
    R_ICCSAT_HIGH ICC_OUT_HIGH 0 1K
    RPROT_IN_M_VCCN VCCN NET398 {RPROT_VCCN}
    R2_REF NET394 NET400 1Meg
    RPROT_IN_P_VCCN NET229 VCCN {RPROT_VCCN}

*Eldo:
*    G_IIB_VM VREF VM TABLE {V(Vccp,Vccn)} = (+2.7 10n) (+5.0 16n)
*    G_IIB_VP VREF VP TABLE {V(Vccp,Vccn)} = (+2.7 10n) (+5.0 16n)
*PSpice:
*    G_IIB_VM VREF VM VALUE={TABLE( V(VCCP,VCCN) , +2.7 , 10n , +5.0 , 16n)}
*    G_IIB_VP VREF VP VALUE={TABLE( V(VCCP,VCCN) , +2.7 , 10n , +5.0 , 16n)}
    G_IIB_VM VREF VM POLY(1) VCCP VCCN 2.956521739130429E-9
+2.6086956521739144E-9
    G_IIB_VP VREF VP POLY(1) VCCP VCCN 2.956521739130429E-9
+2.6086956521739144E-9

    G_ICCSAT_OUTLOW VCCP VCCN VALUE={IF(I(V_OUTVLIM_LOW)>1u ,
+V(Icc_out_low) , 0)}
    G_I_IO VB_2 VREF VALUE={IF(abs(V(Io_val))<50m  , V(VB_Vref)*GB*(
+abs(V(Io_val))/3m ) , V(VB_Vref)*GB*( 50m/3m ) )}
    G_IOUT_SOURCED VCCP 0 VALUE={IF(I(VreadIo)>0, I(VreadIo),0)}
    GM1 VREF VB VOUT_DIFF__SR_VCC 0 {1/RD}    
    IEE VEE_N VCCN_ENHANCED {IEE}
    G_ICCSAT_OUTHIGH VCCP VCCN VALUE={IF(I(V_OUTVLIM_HIGH)>1u ,
+V(Icc_out_high) , 0)}
    G_IOUT_SINKED VCCN 0 VALUE={IF(I(VreadIo)>0, 0, I(VreadIo))}
    
*Eldo:    
*    G_I_VB VB_2 VREF TABLE {V(VB_Vref)} = (-2.7 {-2.7*GB*3}) (-2.0
*+{-2.0*GB*2.5}) (-1.5 {-1.5*GB*2.2}) (-0.69 {-0.69*GB*2}) (-0.65
*+{-0.65*GB*1.0}) (-0.15 {-0.15*GB*1}) (-0.050 {-0.050*GB*1}) (-0.015
*+{-0.015*GB*1}) (-0.0001 {-0.0001*GB*1}) (0 0) (+0.0001 {0.0001*GB*1})
*+(+0.015 {+0.015*GB*1}) (+0.050 {+0.050*GB*1}) (+0.15 {+0.15*GB*1}) (+0.65
*+{0.65*GB*1.0}) (+0.69 {0.69*GB*2})  (+1.5 {1.5*GB*2.2}) (+2.0
*+{2.0*GB*2.5}) (+2.7 {2.7*GB*3})  
*PSpice:
*    G_I_VB VB_2 VREF VALUE={TABLE( V(VB,Vref) , -2.7 , -2.7*GB*3 , -2.0 ,
*+ -2.0*GB*2.5 , -1.5 , -1.5*GB*2.2 , -0.69 , -0.69*GB*2 , -0.65 ,
*+ -0.65*GB*1.0 , -0.15 , -0.15*GB*1 , -0.050 , -0.050*GB*1 , -0.015 ,
*+ -0.015*GB*1 , -0.0001 , -0.0001*GB*1 , 0 , 0 , +0.0001 , 0.0001*GB*1 ,
*+ +0.015 , +0.015*GB*1 , +0.050 , +0.050*GB*1 , +0.15 , +0.15*GB*1 , +0.65,
*+ 0.65*GB*1.0 , +0.69 , 0.69*GB*2 , +1.5 , 1.5*GB*2.2 , +2.0 ,
*+ 2.0*GB*2.5 , +2.7 , 2.7*GB*3 ) }
    G_I_VB VB_2 VREF POLY(1) VB_VREF 0 2.0955964330729256E-18
+0.0064704243141362125 -2.1354856438578985E-18 0.003032922143165251
+1.7832794554106567E-19 -1.99845853108853E-4

*******************************************************************************
*
* MODELS/SUBCKTS and PARAMS used by LMV3x subckt:
*

.PARAM RINCM=6.4777e+7
.PARAM CINCM=1.4646e-11
.PARAM RIN_CM_VM={2*RINCM}
.PARAM RIN_CM_VP={2*RINCM}
.PARAM CIN_CM_VM={CINCM/2}
.PARAM CIN_CM_VP={CINCM/2}
.PARAM RINDIFF=2.3412e+5
.PARAM CINDIFF=9.2768e-12
.PARAM RIN_DIFF={(2*RINCM*RINDIFF)/(2*RINCM - RINDIFF)}
.PARAM CIN_DIFF={CINDIFF - CINCM/2}
.PARAM RD=1k
.PARAM VCCP_enhance=150m
.PARAM VCCN_enhance=-1100m 
.PARAM A0 = 1.0597e+006
.PARAM Ro = 6.5024e+004
.PARAM Ccomp=5.4p 
.PARAM IEE=3u
.PARAM W=1.37u
.PARAM L=1u
.PARAM gm_mos=4.536705600382889e-05
.PARAM GB=6m 
.PARAM Ro1=50
.PARAM Ro2_2=1e-3 
.PARAM Ro2_1={Ro - Ro2_2 - Ro1} 
.PARAM R1={A0/(gm_mos*GB*Ro2_1)}
.PARAM V_DPROT=150m
.PARAM RPROT_VCCP=100
.PARAM RPROT_VCCN=15k
.PARAM Vd_compensazione=-788.4u

*Eldo:
*.MODEL MOS_N  NMOS LEVEL=1 MODTYPE=ELDO VTO=+0.65  KP=500E-6 
*.MODEL DIODE_NOVd D LEVEL=1 MODTYPE=ELDO IS=10E-15 N=0.001
*.MODEL DIODE_VLIM D LEVEL=1 MODTYPE=ELDO IS=0.8E-15   
*.MODEL DIODE_ILIM D LEVEL=1 MODTYPE=ELDO IS=0.8E-15  
*PSpice:
.MODEL MOS_N  NMOS LEVEL=1 VTO=+0.65  KP=500E-6 
.MODEL DIODE_NOVd D LEVEL=1 IS=10E-15 N=0.001
.MODEL DIODE_VLIM D LEVEL=1 IS=0.8E-15   
.MODEL DIODE_ILIM D LEVEL=1 IS=0.8E-15 

*
*******************************************************************************

.ENDS LMV3X
*** End of subcircuit definition.

****************************************************************************
****
***  November 2011
****                      
************ CONNECTIONS: 
****             NON-INVERTING INPUT
****              |  INVERTING INPUT
****              |   |   POSITIVE POWER SUPPLY
****              |   |    |   NEGATIVE POWER SUPPLY
****              |   |    |    |  OUTPUT  
****              |   |    |    |   |     
****              |   |    |    |   |   
.SUBCKT LMVXXL VP  VM  VCCP VCCN  VS  
    LOUT VZOUT 0 {Lout}
    FIOUT 0 VZOUT VREADIO 1.0
    M_NMOS2 VO_DIFF_MINUS VM VEE_N VCCN_ENHANCED MOS_N L={L} W={W}
    M_NMOS1 VO_DIFF_PLUS NET194 VEE_N VCCN_ENHANCED MOS_N L={L} W={W}
    IEE_N VEE_N VCCN_ENHANCED DC {IEE}
    VREADI_R1 VB NET0258 DC 0
    VVLIM_LOW_VB NET192 NET193 DC -770m
    VOS NET194 VP DC 0
    VPROT_IN_P_VCCP NET196 NET229 DC {V_DPROT}
    V_ENHANCE_VCCN VCCN_ENHANCED VCCN DC {VCCN_enhance}
    VREADIO NET0329 VS DC 0
    VVLIM_HIGH_VB NET217 NET203 DC -770m
    V_ENHANCE_VCCP VCCP_ENHANCED VCCP DC {VCCP_enhance}
    V_OUTVLIM_LOW NET206 NET207 DC {Vd_compensazione}
    VPROT_IN_M_VCCN NET208 NET360 DC {V_DPROT}
    V_OUTVLIM_HIGH NET235 NET211 DC {Vd_compensazione}
    VPROT_IN_P_VCCN NET212 NET213 DC {V_DPROT}
    VPROT_IN_M_VCCP NET348 NET219 DC {V_DPROT}
    DVLIM_HIGH_VB VB NET217 DIODE_VLIM
    DPROT_IN_M_VCCP VM NET219 DIODE_VLIM
    DVLIM_LOW_VB NET193 VB DIODE_VLIM
    DPROT_IN_M_VCCN NET208 VM DIODE_VLIM
    DILIM_SINK VB_3_SINK VB_3 DIODE_ILIM
    D_OUTVLIM_LOW NET207 VB_3 DIODE_NOVd
    DPROT_IN_P_VCCP NET194 NET229 DIODE_VLIM
    DILIM_SOURCE VB_3 VB_3_SOURCE DIODE_ILIM
    DPROT_IN_P_VCCN NET212 NET194 DIODE_VLIM
    D_OUTVLIM_HIGH VB_3 NET235 DIODE_NOVd
    CZOUT_IOUT_COEFF VZOUT_IOUT_COEFF 0 1n
    COUT2 VZOUT 0 {Cout2}
    CIN_CM_VM VM VREF {CIN_CM_VM}
    CIN_CM_VP VP VREF {CIN_CM_VP}
    CIN_DIFF VM VP {CIN_DIFF}
    C_RO2_1 VB_2 VREF 5p
    COUT NET0410 0 {Cout}
    CDIFF_PARASITIC VO_DIFF_PLUS VO_DIFF_MINUS 18p
    CCOMP VB VB_2 {Ccomp}
    E_RO1_VOL RO1_VOL 0 POLY(1) VCCP VCCN 136.08695652173913
+-15.217391304347831
    EZOUT_VCC_COEFF VZOUT_VCC_COEFF 0 POLY(1) VCCP VCCN 4.260869565217392
+-0.6521739130434785
    EZOUT_IOUT_COEFF NET0295 0 VALUE={IF( I(VreadIo)>=0 , (
+Zout_Iout_coeff_MIN + (1.0 -
+Zout_Iout_coeff_MIN)*exp(-abs(I(VreadIo)/Iout_dc_tau__source)) ) , (
+Zout_Iout_coeff_MIN + (1.0 -
+Zout_Iout_coeff_MIN)*exp(-abs(I(VreadIo)/Iout_dc_tau__sink)) ) )}
    EZOUT VB_3 NET0329
+VALUE={V(VZout)*V(VZout_Iout_coeff)*V(VZout_Vcc_coeff)}
    E_SR_VCC_MODULATION VOUT_DIFF__SR_VCC 0 VALUE={V(Vout_diff)*(
+0.6891304347826086 + 0.062173913043478246*V(Vccp,Vccn) )}
    E_ICCSAT_HIGH ICC_OUT_HIGH 0 POLY(1) VCCP VCCN 0
    E_ICCSAT_LOW ICC_OUT_LOW 0 POLY(1) VCCP VCCN 3.3730434782608675E-4
+4.1739130434782646E-5
    E_READIO V_IO_VAL 0 VALUE={I(VreadIo)}
    EILIM_SINK VB_3_SINK VDEP_SINK VB_3 0 1.0
    E_RO1_VOH RO1_VOH 0 POLY(1) VCCP VCCN 103.39130434782608
+-13.47826086956522
    EMEAS_VB_VREF VB_VREF 0 VB VREF 1.0
    EMEAS_VOUT_DIFF VOUT_DIFF 0 VO_DIFF_PLUS VO_DIFF_MINUS 1.0
    E_VDEP_SOURCE_2 VAL_VDEP_SOURCE_FILTERED 0
+VALUE={IF(V(val_vdep_source)>=0, 0, V(val_vdep_source))}
    E_VDEP_SOURCE_1 VAL_VDEP_SOURCE 0 VALUE={ ( -183.1086956521739 +
+106.5217391304348*V(Vccp,Vccn) )  -5000*I(VreadIo)}
    EVLIM_HIGH_VOUT NET211 0 VALUE={V(VCCP) - V(Ro1_Voh)*I(VreadIo)}
    EVLIM_LOW_VOUT NET206 0 VALUE={V(VCCN) - V(Ro1_Vol)*I(VreadIo) +
+V(VOL_noRL) }
    E_VDEP_SOURCE_3 VDEP_SOURCE 0 VALUE={IF( abs(I(VreadIo))<1m , 0 ,
+V(val_vdep_source_filtered))}
    EVLIM_HIGH_VB NET203 0 VCCP 0 1.0
    E_VDEP_SINK_2 VAL_VDEP_SINK_FILTERED 0
+VALUE={IF(V(val_vdep_sink)<=0 , 0 , V(val_vdep_sink))}
    E_R1 NET0258 VREF VALUE={I(VreadI_R1)*( R1_sink
++(R1_source-R1_sink)*1/(1+exp(-alpha_switch*(V(v_Io_val)-Io_val_switch) )
+)) }
    EVLIM_LOW_VB NET192 0 VCCN 0 1.0
    E2_REF NET362 0 VCCN 0 1.0
    E_VREF VREF 0 NET356 0 1.0
    E_VOL_NORL VOL_NORL 0 POLY(1) VCCP VCCN 0.0608695652173913
+-0.002173913043478261
    E_VDEP_SINK_3 VDEP_SINK 0 VALUE={IF( abs(I(VreadIo))<1m , 0 ,
+V(val_vdep_sink_filtered))}
    E1_REF NET326 0 VCCP 0 1.0
    E_VDEP_SINK_1 VAL_VDEP_SINK 0 VALUE={ ( -29.71739130434781
+-36.95652173913044*V(Vccp,Vccn) ) -5000*I(VreadIo)}
    EILIM_SOURCE VB_3_SOURCE VDEP_SOURCE VB_3 0 1.0
    RZOUT_IOUT_COEFF VZOUT_IOUT_COEFF NET0295 50
    RIN_CM_VP VREF VP {RIN_CM_VP}
    RIN_DIFF VP VM {RIN_DIFF}
    ROUT NET0410 VZOUT {Rout}
    R_ICCSAT_LOW ICC_OUT_LOW 0 1K
    RO2_2 VB_3 VB_2 {Ro2_2}
    RPROT_IN_P_VCCP NET196 VCCP 100
    RPROT_IN_M_VCCP VCCP NET348 100
    RO2_1 VB_2 VREF {Ro2_1}
    RD1 VCCP_ENHANCED VO_DIFF_PLUS {RD}
    RD2 VCCP_ENHANCED VO_DIFF_MINUS {RD}
    RIN_CM_VM VREF VM {RIN_CM_VM}
    R1_REF NET326 NET356 1Meg
    R_ICCSAT_HIGH ICC_OUT_HIGH 0 1K
    RPROT_IN_M_VCCN VCCN NET360 15K
    R2_REF NET356 NET362 1Meg
    RPROT_IN_P_VCCN NET213 VCCN 15K
    G_ICCSAT_OUTLOW VCCP VCCN VALUE={IF(I(V_OUTVLIM_LOW)>1u ,
+V(Icc_out_low) , 0)}
    G_I_VB VB_2 VREF VB_VREF 0 {GB}
    G_I_IO VB_2 VREF VALUE={V(VB_Vref)*GB*( 11*( 1 -
+exp(-abs(V(v_Io_val))/6m )) )  }
    G_IOUT_SOURCED VCCP 0 VALUE={IF(I(VreadIo)>0, I(VreadIo),0)}
    GM1 VREF VB VOUT_DIFF__SR_VCC 0 {1/RD}
    G_IIB_VM VREF VM VALUE={27n}
    G_ICC VCCP VCCN POLY(1) VCCP VCCN 1.0444086956521737E-4
+4.3478260869565205E-6
    G_ICCSAT_OUTHIGH VCCP VCCN VALUE={IF(I(V_OUTVLIM_HIGH)>1u ,
+V(Icc_out_high), 0)}
    G_IIB_VP VREF VP VALUE={27n}
    G_IOUT_SINKED VCCN 0 VALUE={IF(I(VreadIo)>0, 0, I(VreadIo))}
    
*******************************************************************************
*
* MODELS/SUBCKTS and PARAMS used by TSV851 subckt:
*
.PARAM RINCM=4.3598E+08
.PARAM CINCM=4.9396E-12
.PARAM RIN_CM_VM={2*RINCM}
.PARAM RIN_CM_VP={2*RINCM}
.PARAM CIN_CM_VM={CINCM/2}
.PARAM CIN_CM_VP={CINCM/2}
.PARAM RINDIFF=8.7288E+08
.PARAM CINDIFF=2.3471E-12 
.PARAM RIN_DIFF=1T
.PARAM CIN_DIFF=1f
.PARAM RD=1k
.PARAM VCCP_enhance=150m
.PARAM VCCN_enhance=-1100m 
.PARAM GB=3.4m 
.PARAM Ro = 85.35k
.PARAM A0_source = 25118864   
.PARAM A0_sink = 0.9e+6
.PARAM alpha_switch = 1e6
.PARAM Io_val_switch = -7u
.PARAM Ccomp=5.5p 
.PARAM IEE=3.86u
.PARAM W=1.6u
.PARAM L=1u
.PARAM gm_mos=5.561e-05
.PARAM Lout  = 5u
.PARAM Rout  = 890
.PARAM Cout  = 0.03n
.PARAM Cout2 = 4p
.PARAM Zout_Iout_coeff_MIN= 0.04
.PARAM Iout_dc_tau__source = 0.9m 
.PARAM Iout_dc_tau__sink   = 0.03m 
.PARAM Ro2_2=1e-3 
.PARAM Ro2_1={ Ro - Ro2_2} 
.PARAM R1_sink={A0_sink/(gm_mos*GB*Ro2_1)}
.PARAM R1_source={A0_source/(gm_mos*GB*Ro2_1)}
.PARAM V_DPROT=150m
.PARAM Vd_compensazione=-788.4u

.MODEL MOS_N  NMOS LEVEL=1  VTO=+0.65  KP=500E-6 
.MODEL DIODE_NOVd D LEVEL=1  IS=10E-15 N=0.001
.MODEL DIODE_VLIM D LEVEL=1  IS=0.8E-15   
.MODEL DIODE_ILIM D LEVEL=1  IS=0.8E-15  
*
*******************************************************************************

.ENDS LMVXXL





****************************************************************************
****
***  LMV82X (WITHOUT STAND-BY)  Spice macromodel subckt 
***
***  November 2011
****                      
************ CONNECTIONS: 
****             NON-INVERTING INPUT
****              |  INVERTING INPUT
****              |   |   POSITIVE POWER SUPPLY
****              |   |    |   NEGATIVE POWER SUPPLY
****              |   |    |    |  OUTPUT  
****              |   |    |    |   |     
****              |   |    |    |   |   
.SUBCKT LMV82X   VP  VM  VCCP VCCN  VS  
    LOUT VZOUT 0 {Lout}
    FIOUT 0 VZOUT VREADIO 1.0
    M_NMOS2 VO_DIFF_MINUS VM VEE_N VCCN_ENHANCED MOS_N L={L} W={W}
    M_NMOS1 VO_DIFF_PLUS NET194 VEE_N VCCN_ENHANCED MOS_N L={L} W={W}
    IEE_N VEE_N VCCN_ENHANCED DC {IEE}
    VREADI_R1 VB NET0258 DC 0
    VVLIM_LOW_VB NET192 NET193 DC -770m
    VOS NET194 VP DC 0
    VPROT_IN_P_VCCP NET196 NET229 DC {V_DPROT}
    V_ENHANCE_VCCN VCCN_ENHANCED VCCN DC {VCCN_enhance}
    VREADIO NET0329 VS DC 0
    VVLIM_HIGH_VB NET217 NET203 DC -770m
    V_ENHANCE_VCCP VCCP_ENHANCED VCCP DC {VCCP_enhance}
    V_OUTVLIM_LOW NET206 NET207 DC {Vd_compensazione}
    VPROT_IN_M_VCCN NET208 NET360 DC {V_DPROT}
    V_OUTVLIM_HIGH NET235 NET211 DC {Vd_compensazione}
    VPROT_IN_P_VCCN NET212 NET213 DC {V_DPROT}
    VPROT_IN_M_VCCP NET348 NET219 DC {V_DPROT}
    DVLIM_HIGH_VB VB NET217 DIODE_VLIM
    DPROT_IN_M_VCCP VM NET219 DIODE_VLIM
    DVLIM_LOW_VB NET193 VB DIODE_VLIM
    DPROT_IN_M_VCCN NET208 VM DIODE_VLIM
    DILIM_SINK VB_3_SINK VB_3 DIODE_ILIM
    D_OUTVLIM_LOW NET207 VB_3 DIODE_NOVd
    DPROT_IN_P_VCCP NET194 NET229 DIODE_VLIM
    DILIM_SOURCE VB_3 VB_3_SOURCE DIODE_ILIM
    DPROT_IN_P_VCCN NET212 NET194 DIODE_VLIM
    D_OUTVLIM_HIGH VB_3 NET235 DIODE_NOVd
    CZOUT_IOUT_COEFF VZOUT_IOUT_COEFF 0 1n
    COUT2 VZOUT 0 {Cout2}
    CIN_CM_VM VM VREF {CIN_CM_VM}
    CIN_CM_VP VP VREF {CIN_CM_VP}
    CIN_DIFF VM VP {CIN_DIFF}
    C_RO2_1 VB_2 VREF 10p
    COUT NET0410 0 {Cout}
    CDIFF_PARASITIC VO_DIFF_PLUS VO_DIFF_MINUS 6.8p
    CCOMP VB VB_2 {Ccomp}
    EZOUT_VCC_COEFF VZOUT_VCC_COEFF 0 POLY(1) VCCP VCCN 2.08695652173913
+-0.21739130434782608
    EZOUT_IOUT_COEFF NET0295 0 VALUE={IF( I(VreadIo)>=0 , (
+Zout_Iout_coeff_MIN + (1.0 -
+Zout_Iout_coeff_MIN)*exp(-abs(I(VreadIo)/Iout_dc_tau__source)) ) , (
+Zout_Iout_coeff_MIN + (1.0 -
+Zout_Iout_coeff_MIN)*exp(-abs(I(VreadIo)/Iout_dc_tau__sink)) ) )}
    EZOUT VB_3 NET0329
+VALUE={V(VZout)*V(VZout_Iout_coeff)*V(VZout_Vcc_coeff)}
    E_ICCSAT_HIGH ICC_OUT_HIGH 0 POLY(1) VCCP VCCN 0
    E_RO1_VOL RO1_VOL 0 POLY(1) VCCP VCCN 47.217391304347814
+-3.0434782608695645
    E_ICCSAT_LOW ICC_OUT_LOW 0 POLY(1) VCCP VCCN -1.0782608695652169E-5
+2.8695652173913046E-4
    E_READIO V_IO_VAL 0 VALUE={I(VreadIo)}
    EILIM_SINK VB_3_SINK VDEP_SINK VB_3 0 1.0
    E_RO1_VOH RO1_VOH 0 POLY(1) VCCP VCCN 59.695652173913025
+-6.7391304347826075
    EMEAS_VB_VREF VB_VREF 0 VB VREF 1.0
    EMEAS_VOUT_DIFF VOUT_DIFF 0 VO_DIFF_PLUS VO_DIFF_MINUS 1.0
    E_VDEP_SOURCE_2 VAL_VDEP_SOURCE_FILTERED 0
+VALUE={IF(V(val_vdep_source)>=0, 0, V(val_vdep_source))}
    E_VDEP_SOURCE_1 VAL_VDEP_SOURCE 0 VALUE={ ( -183.1086956521739 +
+106.5217391304348*V(Vccp,Vccn) )  -5000*I(VreadIo)}
    EVLIM_HIGH_VOUT NET211 0 VALUE={V(VCCP) - V(Ro1_Voh)*I(VreadIo)}
    EVLIM_LOW_VOUT NET206 0 VALUE={V(VCCN) - V(Ro1_Vol)*I(VreadIo) +
+V(VOL_noRL) }
    E_VDEP_SOURCE_3 VDEP_SOURCE 0 VALUE={IF( abs(I(VreadIo))<1m , 0 ,
+V(val_vdep_source_filtered))}
    EVLIM_HIGH_VB NET203 0 VCCP 0 1.0
    E_VDEP_SINK_1 VAL_VDEP_SINK 0 VALUE={ ( -29.71739130434781
+-36.95652173913044*V(Vccp,Vccn) ) -5000*I(VreadIo)}
    E_VDEP_SINK_2 VAL_VDEP_SINK_FILTERED 0
+VALUE={IF(V(val_vdep_sink)<=0 , 0 , V(val_vdep_sink))}
    E_R1 NET0258 VREF VALUE={I(VreadI_R1)*( R1_sink
++(R1_source-R1_sink)*1/(1+exp(-alpha_switch*(V(v_Io_val)-Io_val_switch) )
+)) }
    EVLIM_LOW_VB NET192 0 VCCN 0 1.0
    E2_REF NET362 0 VCCN 0 1.0
    E_VREF VREF 0 NET356 0 1.0
    E_VOL_NORL VOL_NORL 0 POLY(1) VCCP VCCN 0.0608695652173913
+-0.002173913043478261
    E_VDEP_SINK_3 VDEP_SINK 0 VALUE={IF( abs(I(VreadIo))<1m , 0 ,
+V(val_vdep_sink_filtered))}
    E1_REF NET326 0 VCCP 0 1.0
    EILIM_SOURCE VB_3_SOURCE VDEP_SOURCE VB_3 0 1.0
    E_SR_VCC_MODULATION VOUT_DIFF__SR_VCC 0 VALUE={V(Vout_diff)*(
+0.8260869565217391 + 0.03478260869565213*V(Vccp,Vccn) )}
    RZOUT_IOUT_COEFF VZOUT_IOUT_COEFF NET0295 50
    RIN_CM_VP VREF VP {RIN_CM_VP}
    RIN_DIFF VP VM {RIN_DIFF}
    ROUT NET0410 VZOUT {Rout}
    R_ICCSAT_LOW ICC_OUT_LOW 0 1K
    RO2_2 VB_3 VB_2 {Ro2_2}
    RPROT_IN_P_VCCP NET196 VCCP 100
    RPROT_IN_M_VCCP VCCP NET348 100
    RO2_1 VB_2 VREF {Ro2_1}