* -*- spice -*-

.LIB RES

.subckt  sub3_in_lib  n1 n2
R3   n1 n2   4k
.ends

.ENDL RES
