* Test Inductor Model

V1 0 1 pulse(0 1 0p 200p 200p 1n 2n)
R1 1 2 10
L1 2 0 10n

.tran 1ps 1ns
.print tran all
.end
