* ISCAS85 benchmark circuit SPICE netlist
* generated by spicegen.pl 1.0 
* by Jingye Xu @ VLSI group, Dept of ECE, UIC

.INCLUDE ../../technology/45nm_HP.pm
.OPTIONS GMIN=1e-04 ABSTOL=1e-18 ACCT

**** the input ports: g21_14 g18_16 g30_13 g5_0 g14_9 g26_15 g15_12 g7_6 g17_2 g27_1 g22_12 g4_9 g23_6 g13_9 g19_10 g6_15 g1_13 g28_4 g32_3 g12_16 g24_6 g9_15 g3_12 g10_3 g31_15 g11_10 g29_0 g20_4 g2_11 g8_10 g16_5 g25_4 ****
**** the output ports: g6269_1 g6287_0 g6266_1 g6275_1 g6286_0 g6263_1 g6262_1 g6259_1 g6265_0 g6272_0 g6280_1 g6258_1 g6281_1 g6276_0 g6288_0 g6267_0 g6277_0 g6257_1 g6273_0 g6268_0 g6282_1 g6274_1 g6261_0 g6284_0 g6270_0 g6283_1 g6278_0 g6285_1 g6264_0 g6271_1 g6260_0 g6279_1 ****

* the voltage sources: 
Vdd vdd gnd DC 1.8

* the input ports: 
V1 g21_14 gnd pulse(0 1 0p 200p 100p 1n 2n)
V2 g18_16 gnd pulse(0 1 0p 200p 100p 1n 2n)
V3 g30_13 gnd pulse(0 1 0p 200p 100p 1n 2n)
V4 g5_0 gnd pulse(0 1 0p 200p 100p 1n 2n)
V5 g14_9 gnd pulse(0 1 0p 200p 100p 1n 2n)
V6 g26_15 gnd pulse(0 1 0p 200p 100p 1n 2n)
V7 g15_12 gnd pulse(0 1 0p 200p 100p 1n 2n)
V8 g7_6 gnd pulse(0 1 0p 200p 100p 1n 2n)
V9 g17_2 gnd pulse(0 1 0p 200p 100p 1n 2n)
V10 g27_1 gnd pulse(0 1 0p 200p 100p 1n 2n)
V11 g22_12 gnd pulse(0 1 0p 200p 100p 1n 2n)
V12 g4_9 gnd pulse(0 1 0p 200p 100p 1n 2n)
V13 g23_6 gnd pulse(0 1 0p 200p 100p 1n 2n)
V14 g13_9 gnd pulse(0 1 0p 200p 100p 1n 2n)
V15 g19_10 gnd pulse(0 1 0p 200p 100p 1n 2n)
V16 g6_15 gnd pulse(0 1 0p 200p 100p 1n 2n)
V17 g1_13 gnd pulse(0 1 0p 200p 100p 1n 2n)
V18 g28_4 gnd pulse(0 1 0p 200p 100p 1n 2n)
V19 g32_3 gnd pulse(0 1 0p 200p 100p 1n 2n)
V20 g12_16 gnd pulse(0 1 0p 200p 100p 1n 2n)
V21 g24_6 gnd pulse(0 1 0p 200p 100p 1n 2n)
V22 g9_15 gnd pulse(0 1 0p 200p 100p 1n 2n)
V23 g3_12 gnd pulse(0 1 0p 200p 100p 1n 2n)
V24 g10_3 gnd pulse(0 1 0p 200p 100p 1n 2n)
V25 g31_15 gnd pulse(0 1 0p 200p 100p 1n 2n)
V26 g11_10 gnd pulse(0 1 0p 200p 100p 1n 2n)
V27 g29_0 gnd pulse(0 1 0p 200p 100p 1n 2n)
V28 g20_4 gnd pulse(0 1 0p 200p 100p 1n 2n)
V29 g2_11 gnd pulse(0 1 0p 200p 100p 1n 2n)
V30 g8_10 gnd pulse(0 1 0p 200p 100p 1n 2n)
V31 g16_5 gnd pulse(0 1 0p 200p 100p 1n 2n)
V32 g25_4 gnd pulse(0 1 0p 200p 100p 1n 2n)

* the net sub circuits: 

.subckt netg6065 g6065_1 g6065_0 gnd
C1  g6065_1 gnd 1.48629f
C2  g6065_0 gnd 1.48629f
R1 g6065_1 g6065_0 1.58886
.ends

.subckt netg4600 g4600_1 g4600_0 gnd
C1  g4600_1 gnd 1.48629f
C2  g4600_0 gnd 1.48629f
R1 g4600_1 g4600_0 1.58886
.ends

.subckt netg6130 g6130_1 g6130_0 gnd
C1  g6130_1 gnd 1.48629f
C2  g6130_0 gnd 1.48629f
R1 g6130_0 g6130_1 1.58886
.ends

.subckt netg2992 g2992_1 g2992_0 gnd
C1  g2992_1 gnd 1.48629f
C2  g2992_0 gnd 1.48629f
R1 g2992_1 g2992_0 1.58886
.ends

.subckt netg3857 g3857_1 g3857_2 gnd
C1  g3857_1 gnd 1.48629f
C2  g3857_2 gnd 1.48629f
R1 g3857_2 g3857_1 1.58886
.ends

.subckt netg2459 g2459_0 g2459_1 gnd
C1  g2459_0 gnd 1.48629f
C2  g2459_1 gnd 1.48629f
R1 g2459_1 g2459_0 1.58886
.ends

.subckt netg830 g830_2 g830_1 gnd
C1  g830_2 gnd 1.48629f
C2  g830_1 gnd 1.48629f
R1 g830_1 g830_2 1.58886
.ends

.subckt netg4705 g4705_1 g4705_0 gnd
C1  g4705_1 gnd 1.48629f
C2  g4705_0 gnd 1.48629f
R1 g4705_1 g4705_0 1.58886
.ends

.subckt netg5940 g5940_1 g5940_0 gnd
C1  g5940_1 gnd 1.48629f
C2  g5940_0 gnd 1.48629f
R1 g5940_1 g5940_0 1.58886
.ends

.subckt netg1920 g1920_1 g1920_2 gnd
C1  g1920_1 gnd 1.48629f
C2  g1920_2 gnd 1.48629f
R1 g1920_1 g1920_2 1.58886
.ends

.subckt netg1526 g1526_1 g1526_0 gnd
C1  g1526_1 gnd 1.48629f
C2  g1526_0 gnd 1.48629f
R1 g1526_0 g1526_1 1.58886
.ends

.subckt netg5255 g5255_1 g5255_0 gnd
C1  g5255_1 gnd 1.48629f
C2  g5255_0 gnd 1.48629f
R1 g5255_0 g5255_1 1.58886
.ends

.subckt netg1381 g1381_0 g1381_1 gnd
C1  g1381_0 gnd 1.48629f
C2  g1381_1 gnd 1.48629f
R1 g1381_1 g1381_0 1.58886
.ends

.subckt netg4901 g4901_1 g4901_0 gnd
C1  g4901_1 gnd 1.48629f
C2  g4901_0 gnd 1.48629f
R1 g4901_0 g4901_1 1.58886
.ends

.subckt netg5669 g5669_1 g5669_0 gnd
C1  g5669_1 gnd 1.48629f
C2  g5669_0 gnd 1.48629f
R1 g5669_1 g5669_0 1.58886
.ends

.subckt netg1853 g1853_0 g1853_1 gnd
C1  g1853_0 gnd 1.48629f
C2  g1853_1 gnd 1.48629f
R1 g1853_1 g1853_0 1.58886
.ends

.subckt netg1395 g1395_0 g1395_1 gnd
C1  g1395_0 gnd 1.48629f
C2  g1395_1 gnd 1.48629f
R1 g1395_0 g1395_1 1.58886
.ends

.subckt netg2635 g2635_1 g2635_0 gnd
C1  g2635_1 gnd 1.48629f
C2  g2635_0 gnd 1.48629f
R1 g2635_1 g2635_0 1.58886
.ends

.subckt netg2008 g2008_0 g2008_1 gnd
C1  g2008_0 gnd 1.48629f
C2  g2008_1 gnd 1.48629f
R1 g2008_1 g2008_0 1.58886
.ends

.subckt netg1878 g1878_1 g1878_0 gnd
C1  g1878_1 gnd 1.48629f
C2  g1878_0 gnd 1.48629f
R1 g1878_1 g1878_0 1.58886
.ends

.subckt netg2328 g2328_0 g2328_1 gnd
C1  g2328_0 gnd 1.48629f
C2  g2328_1 gnd 1.48629f
R1 g2328_1 g2328_0 1.58886
.ends

.subckt netg1698 g1698_1 g1698_0 gnd
C1  g1698_1 gnd 1.48629f
C2  g1698_0 gnd 1.48629f
R1 g1698_0 g1698_1 1.58886
.ends

.subckt netg5284 g5284_0 g5284_1 gnd
C1  g5284_0 gnd 1.48629f
C2  g5284_1 gnd 1.48629f
R1 g5284_0 g5284_1 1.58886
.ends

.subckt netg5180 g5180_0 g5180_1 gnd
C1  g5180_0 gnd 1.48629f
C2  g5180_1 gnd 1.48629f
R1 g5180_0 g5180_1 1.58886
.ends

.subckt netg1683 g1683_0 g1683_1 gnd
C1  g1683_0 gnd 1.48629f
C2  g1683_1 gnd 1.48629f
R1 g1683_1 g1683_0 1.58886
.ends

.subckt netg2826 g2826_1 g2826_0 gnd
C1  g2826_1 gnd 1.48629f
C2  g2826_0 gnd 1.48629f
R1 g2826_1 g2826_0 1.58886
.ends

.subckt netg3488 g3488_1 g3488_0 gnd
C1  g3488_1 gnd 1.48629f
C2  g3488_0 gnd 1.48629f
R1 g3488_0 g3488_1 1.58886
.ends

.subckt netg6165 g6165_0 g6165_1 gnd
C1  g6165_0 gnd 1.48629f
C2  g6165_1 gnd 1.48629f
R1 g6165_1 g6165_0 1.58886
.ends

.subckt netg3818 g3818_0 g3818_1 gnd
C1  g3818_0 gnd 1.48629f
C2  g3818_1 gnd 1.48629f
R1 g3818_0 g3818_1 1.58886
.ends

.subckt netg4189 g4189_1 g4189_0 gnd
C1  g4189_1 gnd 1.48629f
C2  g4189_0 gnd 1.48629f
R1 g4189_1 g4189_0 1.58886
.ends

.subckt netg6131 g6131_1 g6131_2 gnd
C1  g6131_1 gnd 1.48629f
C2  g6131_2 gnd 1.48629f
R1 g6131_2 g6131_1 1.58886
.ends

.subckt netg1847 g1847_1 g1847_0 gnd
C1  g1847_1 gnd 1.48629f
C2  g1847_0 gnd 1.48629f
R1 g1847_1 g1847_0 1.58886
.ends

.subckt netg4827 g4827_0 g4827_1 gnd
C1  g4827_0 gnd 1.48629f
C2  g4827_1 gnd 1.48629f
R1 g4827_1 g4827_0 1.58886
.ends

.subckt netg4195 g4195_0 g4195_1 gnd
C1  g4195_0 gnd 1.48629f
C2  g4195_1 gnd 1.48629f
R1 g4195_0 g4195_1 1.58886
.ends

.subckt netg3513 g3513_0 g3513_1 gnd
C1  g3513_0 gnd 1.48629f
C2  g3513_1 gnd 1.48629f
R1 g3513_0 g3513_1 1.58886
.ends

.subckt netg2915 g2915_0 g2915_1 gnd
C1  g2915_0 gnd 1.48629f
C2  g2915_1 gnd 1.48629f
R1 g2915_0 g2915_1 1.58886
.ends

.subckt netg2078 g2078_0 g2078_1 gnd
C1  g2078_0 gnd 1.48629f
C2  g2078_1 gnd 1.48629f
R1 g2078_1 g2078_0 1.58886
.ends

.subckt netg1997 g1997_1 g1997_0 gnd
C1  g1997_1 gnd 1.48629f
C2  g1997_0 gnd 1.48629f
R1 g1997_1 g1997_0 1.58886
.ends

.subckt netg5637 g5637_1 g5637_0 gnd
C1  g5637_1 gnd 1.48629f
C2  g5637_0 gnd 1.48629f
R1 g5637_0 g5637_1 1.58886
.ends

.subckt netg2667 g2667_0 g2667_1 gnd
C1  g2667_0 gnd 1.48629f
C2  g2667_1 gnd 1.48629f
R1 g2667_1 g2667_0 1.58886
.ends

.subckt netg5804 g5804_0 g5804_1 gnd
C1  g5804_0 gnd 1.48629f
C2  g5804_1 gnd 1.48629f
R1 g5804_0 g5804_1 1.58886
.ends

.subckt netg2831 g2831_0 g2831_1 gnd
C1  g2831_0 gnd 1.48629f
C2  g2831_1 gnd 1.48629f
R1 g2831_1 g2831_0 1.58886
.ends

.subckt netg1702 g1702_0 g1702_1 gnd
C1  g1702_0 gnd 1.48629f
C2  g1702_1 gnd 1.48629f
R1 g1702_1 g1702_0 1.58886
.ends

.subckt netg5365 g5365_1 g5365_0 gnd
C1  g5365_1 gnd 1.48629f
C2  g5365_0 gnd 1.48629f
R1 g5365_1 g5365_0 1.58886
.ends

.subckt netg3838 g3838_0 g3838_1 gnd
C1  g3838_0 gnd 1.48629f
C2  g3838_1 gnd 1.48629f
R1 g3838_1 g3838_0 1.58886
.ends

.subckt netg4982 g4982_1 g4982_0 gnd
C1  g4982_1 gnd 1.48629f
C2  g4982_0 gnd 1.48629f
R1 g4982_0 g4982_1 1.58886
.ends

.subckt netg5202 g5202_1 g5202_0 gnd
C1  g5202_1 gnd 1.48629f
C2  g5202_0 gnd 1.48629f
R1 g5202_0 g5202_1 1.58886
.ends

.subckt netg3154 g3154_1 g3154_0 gnd
C1  g3154_1 gnd 1.48629f
C2  g3154_0 gnd 1.48629f
R1 g3154_1 g3154_0 1.58886
.ends

.subckt netg4780 g4780_0 g4780_1 gnd
C1  g4780_0 gnd 1.48629f
C2  g4780_1 gnd 1.48629f
R1 g4780_0 g4780_1 1.58886
.ends

.subckt netg2582 g2582_1 g2582_0 gnd
C1  g2582_1 gnd 1.48629f
C2  g2582_0 gnd 1.48629f
R1 g2582_1 g2582_0 1.58886
.ends

.subckt netg4707 g4707_2 g4707_1 gnd
C1  g4707_2 gnd 1.48629f
C2  g4707_1 gnd 1.48629f
R1 g4707_2 g4707_1 1.58886
.ends

.subckt netg2727 g2727_0 g2727_1 gnd
C1  g2727_0 gnd 1.48629f
C2  g2727_1 gnd 1.48629f
R1 g2727_1 g2727_0 1.58886
.ends

.subckt netg2335 g2335_0 g2335_1 gnd
C1  g2335_0 gnd 1.48629f
C2  g2335_1 gnd 1.48629f
R1 g2335_0 g2335_1 1.58886
.ends

.subckt netg5581 g5581_0 g5581_1 gnd
C1  g5581_0 gnd 1.48629f
C2  g5581_1 gnd 1.48629f
R1 g5581_1 g5581_0 1.58886
.ends

.subckt netg5375 g5375_0 g5375_1 gnd
C1  g5375_0 gnd 1.48629f
C2  g5375_1 gnd 1.48629f
R1 g5375_0 g5375_1 1.58886
.ends

.subckt netg5842 g5842_0 g5842_1 gnd
C1  g5842_0 gnd 1.48629f
C2  g5842_1 gnd 1.48629f
R1 g5842_1 g5842_0 1.58886
.ends

.subckt netg4007 g4007_1 g4007_0 gnd
C1  g4007_1 gnd 1.48629f
C2  g4007_0 gnd 1.48629f
R1 g4007_0 g4007_1 1.58886
.ends

.subckt netg1727 g1727_2 g1727_1 gnd
C1  g1727_2 gnd 1.48629f
C2  g1727_1 gnd 1.48629f
R1 g1727_1 g1727_2 1.58886
.ends

.subckt netg6184 g6184_1 g6184_0 gnd
C1  g6184_1 gnd 1.48629f
C2  g6184_0 gnd 1.48629f
R1 g6184_0 g6184_1 1.58886
.ends

.subckt netg1393 g1393_1 g1393_0 gnd
C1  g1393_1 gnd 1.48629f
C2  g1393_0 gnd 1.48629f
R1 g1393_0 g1393_1 1.58886
.ends

.subckt netg1550 g1550_1 g1550_0 gnd
C1  g1550_1 gnd 1.48629f
C2  g1550_0 gnd 1.48629f
R1 g1550_0 g1550_1 1.58886
.ends

.subckt netg4228 g4228_1 g4228_0 gnd
C1  g4228_1 gnd 1.48629f
C2  g4228_0 gnd 1.48629f
R1 g4228_0 g4228_1 1.58886
.ends

.subckt netg4935 g4935_1 g4935_2 gnd
C1  g4935_1 gnd 1.48629f
C2  g4935_2 gnd 1.48629f
R1 g4935_2 g4935_1 1.58886
.ends

.subckt netg974 g974_2 g974_0 gnd
C1  g974_2 gnd 1.48629f
C2  g974_0 gnd 1.48629f
R1 g974_2 g974_0 1.58886
.ends

.subckt netg5263 g5263_1 g5263_0 gnd
C1  g5263_1 gnd 1.48629f
C2  g5263_0 gnd 1.48629f
R1 g5263_1 g5263_0 1.58886
.ends

.subckt netg2492 g2492_1 g2492_0 gnd
C1  g2492_1 gnd 1.48629f
C2  g2492_0 gnd 1.48629f
R1 g2492_0 g2492_1 1.58886
.ends

.subckt netg3726 g3726_1 g3726_0 gnd
C1  g3726_1 gnd 1.48629f
C2  g3726_0 gnd 1.48629f
R1 g3726_0 g3726_1 1.58886
.ends

.subckt netg5965 g5965_0 g5965_1 gnd
C1  g5965_0 gnd 1.48629f
C2  g5965_1 gnd 1.48629f
R1 g5965_0 g5965_1 1.58886
.ends

.subckt netg2323 g2323_1 g2323_0 gnd
C1  g2323_1 gnd 1.48629f
C2  g2323_0 gnd 1.48629f
R1 g2323_0 g2323_1 1.58886
.ends

.subckt netg1521 g1521_0 g1521_1 gnd
C1  g1521_0 gnd 1.48629f
C2  g1521_1 gnd 1.48629f
R1 g1521_0 g1521_1 1.58886
.ends

.subckt netg3192 g3192_1 g3192_0 gnd
C1  g3192_1 gnd 1.48629f
C2  g3192_0 gnd 1.48629f
R1 g3192_0 g3192_1 1.58886
.ends

.subckt netg2379 g2379_2 g2379_0 gnd
C1  g2379_2 gnd 1.48629f
C2  g2379_0 gnd 1.48629f
R1 g2379_0 g2379_2 1.58886
.ends

.subckt netg1375 g1375_1 g1375_0 gnd
C1  g1375_1 gnd 1.48629f
C2  g1375_0 gnd 1.48629f
R1 g1375_0 g1375_1 1.58886
.ends

.subckt netg1527 g1527_2 g1527_1 gnd
C1  g1527_2 gnd 1.48629f
C2  g1527_1 gnd 1.48629f
R1 g1527_1 g1527_2 1.58886
.ends

.subckt netg3001 g3001_2 g3001_0 gnd
C1  g3001_2 gnd 1.48629f
C2  g3001_0 gnd 1.48629f
R1 g3001_2 g3001_0 1.58886
.ends

.subckt netg4561 g4561_1 g4561_0 gnd
C1  g4561_1 gnd 1.48629f
C2  g4561_0 gnd 1.48629f
R1 g4561_0 g4561_1 1.58886
.ends

.subckt netg6117 g6117_1 g6117_0 gnd
C1  g6117_1 gnd 1.48629f
C2  g6117_0 gnd 1.48629f
R1 g6117_1 g6117_0 1.58886
.ends

.subckt netg5986 g5986_1 g5986_0 gnd
C1  g5986_1 gnd 1.48629f
C2  g5986_0 gnd 1.48629f
R1 g5986_1 g5986_0 1.58886
.ends

.subckt netg4206 g4206_1 g4206_0 gnd
C1  g4206_1 gnd 1.48629f
C2  g4206_0 gnd 1.48629f
R1 g4206_1 g4206_0 1.58886
.ends

.subckt netg4941 g4941_1 g4941_2 gnd
C1  g4941_1 gnd 1.48629f
C2  g4941_2 gnd 1.48629f
R1 g4941_1 g4941_2 1.58886
.ends

.subckt netg6054 g6054_0 g6054_1 gnd
C1  g6054_0 gnd 1.48629f
C2  g6054_1 gnd 1.48629f
R1 g6054_0 g6054_1 1.58886
.ends

.subckt netg4184 g4184_1 g4184_0 gnd
C1  g4184_1 gnd 1.48629f
C2  g4184_0 gnd 1.48629f
R1 g4184_1 g4184_0 1.58886
.ends

.subckt netg761 g761_2 g761_1 gnd
C1  g761_2 gnd 1.48629f
C2  g761_1 gnd 1.48629f
R1 g761_2 g761_1 1.58886
.ends

.subckt netg3069 g3069_1 g3069_0 gnd
C1  g3069_1 gnd 1.48629f
C2  g3069_0 gnd 1.48629f
R1 g3069_0 g3069_1 1.58886
.ends

.subckt netg6192 g6192_0 g6192_1 gnd
C1  g6192_0 gnd 1.48629f
C2  g6192_1 gnd 1.48629f
R1 g6192_0 g6192_1 1.58886
.ends

.subckt netg1996 g1996_1 g1996_0 gnd
C1  g1996_1 gnd 1.48629f
C2  g1996_0 gnd 1.48629f
R1 g1996_1 g1996_0 1.58886
.ends

.subckt netg2336 g2336_0 g2336_1 gnd
C1  g2336_0 gnd 1.48629f
C2  g2336_1 gnd 1.48629f
R1 g2336_1 g2336_0 1.58886
.ends

.subckt netg1701 g1701_1 g1701_0 gnd
C1  g1701_1 gnd 1.48629f
C2  g1701_0 gnd 1.48629f
R1 g1701_1 g1701_0 1.58886
.ends

.subckt netg2353 g2353_0 g2353_1 gnd
C1  g2353_0 gnd 1.48629f
C2  g2353_1 gnd 1.48629f
R1 g2353_1 g2353_0 1.58886
.ends

.subckt netg4715 g4715_0 g4715_1 gnd
C1  g4715_0 gnd 1.48629f
C2  g4715_1 gnd 1.48629f
R1 g4715_0 g4715_1 1.58886
.ends

.subckt netg1703 g1703_0 g1703_1 gnd
C1  g1703_0 gnd 1.48629f
C2  g1703_1 gnd 1.48629f
R1 g1703_1 g1703_0 1.58886
.ends

.subckt netg5051 g5051_0 g5051_1 gnd
C1  g5051_0 gnd 1.48629f
C2  g5051_1 gnd 1.48629f
R1 g5051_0 g5051_1 1.58886
.ends

.subckt netg3865 g3865_1 g3865_0 gnd
C1  g3865_1 gnd 1.48629f
C2  g3865_0 gnd 1.48629f
R1 g3865_0 g3865_1 1.58886
.ends

.subckt netg5816 g5816_1 g5816_0 gnd
C1  g5816_1 gnd 1.48629f
C2  g5816_0 gnd 1.48629f
R1 g5816_1 g5816_0 1.58886
.ends

.subckt netg4540 g4540_0 g4540_1 gnd
C1  g4540_0 gnd 1.48629f
C2  g4540_1 gnd 1.48629f
R1 g4540_0 g4540_1 1.58886
.ends

.subckt netg2016 g2016_0 g2016_1 gnd
C1  g2016_0 gnd 1.48629f
C2  g2016_1 gnd 1.48629f
R1 g2016_0 g2016_1 1.58886
.ends

.subckt netg2399 g2399_0 g2399_1 gnd
C1  g2399_0 gnd 1.48629f
C2  g2399_1 gnd 1.48629f
R1 g2399_0 g2399_1 1.58886
.ends

.subckt netg2982 g2982_1 g2982_0 gnd
C1  g2982_1 gnd 1.48629f
C2  g2982_0 gnd 1.48629f
R1 g2982_1 g2982_0 1.58886
.ends

.subckt netg6112 g6112_1 g6112_0 gnd
C1  g6112_1 gnd 1.48629f
C2  g6112_0 gnd 1.48629f
R1 g6112_1 g6112_0 1.58886
.ends

.subckt netg5624 g5624_1 g5624_0 gnd
C1  g5624_1 gnd 1.48629f
C2  g5624_0 gnd 1.48629f
R1 g5624_0 g5624_1 1.58886
.ends

.subckt netg4868 g4868_0 g4868_1 gnd
C1  g4868_0 gnd 1.48629f
C2  g4868_1 gnd 1.48629f
R1 g4868_1 g4868_0 1.58886
.ends

.subckt netg2187 g2187_1 g2187_0 gnd
C1  g2187_1 gnd 1.48629f
C2  g2187_0 gnd 1.48629f
R1 g2187_1 g2187_0 1.58886
.ends

.subckt netg1379 g1379_1 g1379_0 gnd
C1  g1379_1 gnd 1.48629f
C2  g1379_0 gnd 1.48629f
R1 g1379_0 g1379_1 1.58886
.ends

.subckt netg3573 g3573_0 g3573_1 gnd
C1  g3573_0 gnd 1.48629f
C2  g3573_1 gnd 1.48629f
R1 g3573_0 g3573_1 1.58886
.ends

.subckt netg3890 g3890_1 g3890_2 gnd
C1  g3890_1 gnd 1.48629f
C2  g3890_2 gnd 1.48629f
R1 g3890_1 g3890_2 1.58886
.ends

.subckt netg5522 g5522_0 g5522_1 gnd
C1  g5522_0 gnd 1.48629f
C2  g5522_1 gnd 1.48629f
R1 g5522_1 g5522_0 1.58886
.ends

.subckt netg3320 g3320_1 g3320_0 gnd
C1  g3320_1 gnd 1.48629f
C2  g3320_0 gnd 1.48629f
R1 g3320_0 g3320_1 1.58886
.ends

.subckt netg5386 g5386_1 g5386_0 gnd
C1  g5386_1 gnd 1.48629f
C2  g5386_0 gnd 1.48629f
R1 g5386_0 g5386_1 1.58886
.ends

.subckt netg3175 g3175_0 g3175_1 gnd
C1  g3175_0 gnd 1.48629f
C2  g3175_1 gnd 1.48629f
R1 g3175_0 g3175_1 1.58886
.ends

.subckt netg4162 g4162_0 g4162_1 gnd
C1  g4162_0 gnd 1.48629f
C2  g4162_1 gnd 1.48629f
R1 g4162_0 g4162_1 1.58886
.ends

.subckt netg2989 g2989_0 g2989_1 gnd
C1  g2989_0 gnd 1.48629f
C2  g2989_1 gnd 1.48629f
R1 g2989_1 g2989_0 1.58886
.ends

.subckt netg3805 g3805_1 g3805_0 gnd
C1  g3805_1 gnd 1.48629f
C2  g3805_0 gnd 1.48629f
R1 g3805_0 g3805_1 1.58886
.ends

.subckt netg5803 g5803_1 g5803_0 gnd
C1  g5803_1 gnd 1.48629f
C2  g5803_0 gnd 1.48629f
R1 g5803_0 g5803_1 1.58886
.ends

.subckt netg2344 g2344_0 g2344_1 gnd
C1  g2344_0 gnd 1.48629f
C2  g2344_1 gnd 1.48629f
R1 g2344_0 g2344_1 1.58886
.ends

.subckt netg5243 g5243_0 g5243_1 gnd
C1  g5243_0 gnd 1.48629f
C2  g5243_1 gnd 1.48629f
R1 g5243_1 g5243_0 1.58886
.ends

.subckt netg5438 g5438_1 g5438_0 gnd
C1  g5438_1 gnd 1.48629f
C2  g5438_0 gnd 1.48629f
R1 g5438_1 g5438_0 1.58886
.ends

.subckt netg2990 g2990_0 g2990_1 gnd
C1  g2990_0 gnd 1.48629f
C2  g2990_1 gnd 1.48629f
R1 g2990_1 g2990_0 1.58886
.ends

.subckt netg6029 g6029_0 g6029_1 gnd
C1  g6029_0 gnd 1.48629f
C2  g6029_1 gnd 1.48629f
R1 g6029_1 g6029_0 1.58886
.ends

.subckt netg1391 g1391_1 g1391_0 gnd
C1  g1391_1 gnd 1.48629f
C2  g1391_0 gnd 1.48629f
R1 g1391_1 g1391_0 1.58886
.ends

.subckt netg5352 g5352_0 g5352_1 gnd
C1  g5352_0 gnd 1.48629f
C2  g5352_1 gnd 1.48629f
R1 g5352_1 g5352_0 1.58886
.ends

.subckt netg4417 g4417_0 g4417_1 gnd
C1  g4417_0 gnd 1.48629f
C2  g4417_1 gnd 1.48629f
R1 g4417_0 g4417_1 1.58886
.ends

.subckt netg2654 g2654_0 g2654_1 gnd
C1  g2654_0 gnd 1.48629f
C2  g2654_1 gnd 1.48629f
R1 g2654_1 g2654_0 1.58886
.ends

.subckt netg1692 g1692_0 g1692_1 gnd
C1  g1692_0 gnd 1.48629f
C2  g1692_1 gnd 1.48629f
R1 g1692_0 g1692_1 1.58886
.ends

.subckt netg1070 g1070_2 g1070_0 gnd
C1  g1070_2 gnd 1.48629f
C2  g1070_0 gnd 1.48629f
R1 g1070_0 g1070_2 1.58886
.ends

.subckt netg2470 g2470_0 g2470_1 gnd
C1  g2470_0 gnd 1.48629f
C2  g2470_1 gnd 1.48629f
R1 g2470_0 g2470_1 1.58886
.ends

.subckt netg5552 g5552_0 g5552_1 gnd
C1  g5552_0 gnd 1.48629f
C2  g5552_1 gnd 1.48629f
R1 g5552_0 g5552_1 1.58886
.ends

.subckt netg2847 g2847_1 g2847_0 gnd
C1  g2847_1 gnd 1.48629f
C2  g2847_0 gnd 1.48629f
R1 g2847_1 g2847_0 1.58886
.ends

.subckt netg3354 g3354_1 g3354_0 gnd
C1  g3354_1 gnd 1.48629f
C2  g3354_0 gnd 1.48629f
R1 g3354_1 g3354_0 1.58886
.ends

.subckt netg5480 g5480_1 g5480_0 gnd
C1  g5480_1 gnd 1.48629f
C2  g5480_0 gnd 1.48629f
R1 g5480_1 g5480_0 1.58886
.ends

.subckt netg2400 g2400_2 g2400_1 gnd
C1  g2400_2 gnd 1.48629f
C2  g2400_1 gnd 1.48629f
R1 g2400_2 g2400_1 1.58886
.ends

.subckt netg4758 g4758_2 g4758_0 gnd
C1  g4758_2 gnd 1.48629f
C2  g4758_0 gnd 1.48629f
R1 g4758_0 g4758_2 1.58886
.ends

.subckt netg2167 g2167_0 g2167_1 gnd
C1  g2167_0 gnd 1.48629f
C2  g2167_1 gnd 1.48629f
R1 g2167_0 g2167_1 1.58886
.ends

.subckt netg6087 g6087_1 g6087_0 gnd
C1  g6087_1 gnd 1.48629f
C2  g6087_0 gnd 1.48629f
R1 g6087_0 g6087_1 1.58886
.ends

.subckt netg5426 g5426_0 g5426_1 gnd
C1  g5426_0 gnd 1.48629f
C2  g5426_1 gnd 1.48629f
R1 g5426_0 g5426_1 1.58886
.ends

.subckt netg5058 g5058_1 g5058_0 gnd
C1  g5058_1 gnd 1.48629f
C2  g5058_0 gnd 1.48629f
R1 g5058_0 g5058_1 1.58886
.ends

.subckt netg1887 g1887_0 g1887_1 gnd
C1  g1887_0 gnd 1.48629f
C2  g1887_1 gnd 1.48629f
R1 g1887_0 g1887_1 1.58886
.ends

.subckt netg2176 g2176_0 g2176_1 gnd
C1  g2176_0 gnd 1.48629f
C2  g2176_1 gnd 1.48629f
R1 g2176_1 g2176_0 1.58886
.ends

.subckt netg6174 g6174_0 g6174_1 gnd
C1  g6174_0 gnd 1.48629f
C2  g6174_1 gnd 1.48629f
R1 g6174_1 g6174_0 1.58886
.ends

.subckt netg2025 g2025_0 g2025_1 gnd
C1  g2025_0 gnd 1.48629f
C2  g2025_1 gnd 1.48629f
R1 g2025_0 g2025_1 1.58886
.ends

.subckt netg4909 g4909_1 g4909_0 gnd
C1  g4909_1 gnd 1.48629f
C2  g4909_0 gnd 1.48629f
R1 g4909_1 g4909_0 1.58886
.ends

.subckt netg5056 g5056_0 g5056_1 gnd
C1  g5056_0 gnd 1.48629f
C2  g5056_1 gnd 1.48629f
R1 g5056_1 g5056_0 1.58886
.ends

.subckt netg1540 g1540_1 g1540_0 gnd
C1  g1540_1 gnd 1.48629f
C2  g1540_0 gnd 1.48629f
R1 g1540_0 g1540_1 1.58886
.ends

.subckt netg5053 g5053_0 g5053_1 gnd
C1  g5053_0 gnd 1.48629f
C2  g5053_1 gnd 1.48629f
R1 g5053_0 g5053_1 1.58886
.ends

.subckt netg5952 g5952_0 g5952_1 gnd
C1  g5952_0 gnd 1.48629f
C2  g5952_1 gnd 1.48629f
R1 g5952_0 g5952_1 1.58886
.ends

.subckt netg2528 g2528_0 g2528_1 gnd
C1  g2528_0 gnd 1.48629f
C2  g2528_1 gnd 1.48629f
R1 g2528_0 g2528_1 1.58886
.ends

.subckt netg6228 g6228_0 g6228_1 gnd
C1  g6228_0 gnd 1.48629f
C2  g6228_1 gnd 1.48629f
R1 g6228_1 g6228_0 1.58886
.ends

.subckt netg3156 g3156_1 g3156_2 gnd
C1  g3156_1 gnd 1.48629f
C2  g3156_2 gnd 1.48629f
R1 g3156_1 g3156_2 1.58886
.ends

.subckt netg3663 g3663_1 g3663_0 gnd
C1  g3663_1 gnd 1.48629f
C2  g3663_0 gnd 1.48629f
R1 g3663_0 g3663_1 1.58886
.ends

.subckt netg2326 g2326_1 g2326_0 gnd
C1  g2326_1 gnd 1.48629f
C2  g2326_0 gnd 1.48629f
R1 g2326_1 g2326_0 1.58886
.ends

.subckt netg1858 g1858_0 g1858_1 gnd
C1  g1858_0 gnd 1.48629f
C2  g1858_1 gnd 1.48629f
R1 g1858_0 g1858_1 1.58886
.ends

.subckt netg4488 g4488_0 g4488_1 gnd
C1  g4488_0 gnd 1.48629f
C2  g4488_1 gnd 1.48629f
R1 g4488_0 g4488_1 1.58886
.ends

.subckt netg5932 g5932_0 g5932_1 gnd
C1  g5932_0 gnd 1.48629f
C2  g5932_1 gnd 1.48629f
R1 g5932_1 g5932_0 1.58886
.ends

.subckt netg4384 g4384_1 g4384_0 gnd
C1  g4384_1 gnd 1.48629f
C2  g4384_0 gnd 1.48629f
R1 g4384_0 g4384_1 1.58886
.ends

.subckt netg4951 g4951_0 g4951_1 gnd
C1  g4951_0 gnd 1.48629f
C2  g4951_1 gnd 1.48629f
R1 g4951_0 g4951_1 1.58886
.ends

.subckt netg6255 g6255_1 g6255_0 gnd
C1  g6255_1 gnd 1.48629f
C2  g6255_0 gnd 1.48629f
R1 g6255_1 g6255_0 1.58886
.ends

.subckt netg5040 g5040_0 g5040_1 gnd
C1  g5040_0 gnd 1.48629f
C2  g5040_1 gnd 1.48629f
R1 g5040_1 g5040_0 1.58886
.ends

.subckt netg4888 g4888_0 g4888_1 gnd
C1  g4888_0 gnd 1.48629f
C2  g4888_1 gnd 1.48629f
R1 g4888_0 g4888_1 1.58886
.ends

.subckt netg1691 g1691_1 g1691_0 gnd
C1  g1691_1 gnd 1.48629f
C2  g1691_0 gnd 1.48629f
R1 g1691_1 g1691_0 1.58886
.ends

.subckt netg1546 g1546_0 g1546_1 gnd
C1  g1546_0 gnd 1.48629f
C2  g1546_1 gnd 1.48629f
R1 g1546_0 g1546_1 1.58886
.ends

.subckt netg1536 g1536_1 g1536_0 gnd
C1  g1536_1 gnd 1.48629f
C2  g1536_0 gnd 1.48629f
R1 g1536_1 g1536_0 1.58886
.ends

.subckt netg1700 g1700_1 g1700_0 gnd
C1  g1700_1 gnd 1.48629f
C2  g1700_0 gnd 1.48629f
R1 g1700_0 g1700_1 1.58886
.ends

.subckt netg5227 g5227_0 g5227_1 gnd
C1  g5227_0 gnd 1.48629f
C2  g5227_1 gnd 1.48629f
R1 g5227_0 g5227_1 1.58886
.ends

.subckt netg1384 g1384_0 g1384_1 gnd
C1  g1384_0 gnd 1.48629f
C2  g1384_1 gnd 1.48629f
R1 g1384_0 g1384_1 1.58886
.ends

.subckt netg5725 g5725_1 g5725_0 gnd
C1  g5725_1 gnd 1.48629f
C2  g5725_0 gnd 1.48629f
R1 g5725_1 g5725_0 1.58886
.ends

.subckt netg3323 g3323_1 g3323_0 gnd
C1  g3323_1 gnd 1.48629f
C2  g3323_0 gnd 1.48629f
R1 g3323_0 g3323_1 1.58886
.ends

.subckt netg2821 g2821_1 g2821_0 gnd
C1  g2821_1 gnd 1.48629f
C2  g2821_0 gnd 1.48629f
R1 g2821_1 g2821_0 1.58886
.ends

.subckt netg4005 g4005_0 g4005_1 gnd
C1  g4005_0 gnd 1.48629f
C2  g4005_1 gnd 1.48629f
R1 g4005_1 g4005_0 1.58886
.ends

.subckt netg3507 g3507_1 g3507_0 gnd
C1  g3507_1 gnd 1.48629f
C2  g3507_0 gnd 1.48629f
R1 g3507_1 g3507_0 1.58886
.ends

.subckt netg5416 g5416_1 g5416_0 gnd
C1  g5416_1 gnd 1.48629f
C2  g5416_0 gnd 1.48629f
R1 g5416_1 g5416_0 1.58886
.ends

.subckt netg3731 g3731_1 g3731_2 gnd
C1  g3731_1 gnd 1.48629f
C2  g3731_2 gnd 1.48629f
R1 g3731_1 g3731_2 1.58886
.ends

.subckt netg2822 g2822_1 g2822_0 gnd
C1  g2822_1 gnd 1.48629f
C2  g2822_0 gnd 1.48629f
R1 g2822_1 g2822_0 1.58886
.ends

.subckt netg3139 g3139_1 g3139_0 gnd
C1  g3139_1 gnd 1.48629f
C2  g3139_0 gnd 1.48629f
R1 g3139_0 g3139_1 1.58886
.ends

.subckt netg5101 g5101_1 g5101_0 gnd
C1  g5101_1 gnd 1.48629f
C2  g5101_0 gnd 1.48629f
R1 g5101_0 g5101_1 1.58886
.ends

.subckt netg1560 g1560_0 g1560_1 gnd
C1  g1560_0 gnd 1.48629f
C2  g1560_1 gnd 1.48629f
R1 g1560_0 g1560_1 1.58886
.ends

.subckt netg2011 g2011_1 g2011_0 gnd
C1  g2011_1 gnd 1.48629f
C2  g2011_0 gnd 1.48629f
R1 g2011_1 g2011_0 1.58886
.ends

.subckt netg4790 g4790_1 g4790_0 gnd
C1  g4790_1 gnd 1.48629f
C2  g4790_0 gnd 1.48629f
R1 g4790_0 g4790_1 1.58886
.ends

.subckt netg5134 g5134_0 g5134_1 gnd
C1  g5134_0 gnd 1.48629f
C2  g5134_1 gnd 1.48629f
R1 g5134_1 g5134_0 1.58886
.ends

.subckt netg5646 g5646_0 g5646_1 gnd
C1  g5646_0 gnd 1.48629f
C2  g5646_1 gnd 1.48629f
R1 g5646_1 g5646_0 1.58886
.ends

.subckt netg4004 g4004_0 g4004_1 gnd
C1  g4004_0 gnd 1.48629f
C2  g4004_1 gnd 1.48629f
R1 g4004_1 g4004_0 1.58886
.ends

.subckt netg3140 g3140_0 g3140_1 gnd
C1  g3140_0 gnd 1.48629f
C2  g3140_1 gnd 1.48629f
R1 g3140_0 g3140_1 1.58886
.ends

.subckt netg4728 g4728_2 g4728_1 gnd
C1  g4728_2 gnd 1.48629f
C2  g4728_1 gnd 1.48629f
R1 g4728_1 g4728_2 1.58886
.ends

.subckt netg731 g731_2 g731_1 gnd
C1  g731_2 gnd 1.48629f
C2  g731_1 gnd 1.48629f
R1 g731_1 g731_2 1.58886
.ends

.subckt netg3332 g3332_0 g3332_1 gnd
C1  g3332_0 gnd 1.48629f
C2  g3332_1 gnd 1.48629f
R1 g3332_0 g3332_1 1.58886
.ends

.subckt netg5616 g5616_0 g5616_1 gnd
C1  g5616_0 gnd 1.48629f
C2  g5616_1 gnd 1.48629f
R1 g5616_1 g5616_0 1.58886
.ends

.subckt netg1696 g1696_1 g1696_0 gnd
C1  g1696_1 gnd 1.48629f
C2  g1696_0 gnd 1.48629f
R1 g1696_1 g1696_0 1.58886
.ends

.subckt netg1888 g1888_1 g1888_0 gnd
C1  g1888_1 gnd 1.48629f
C2  g1888_0 gnd 1.48629f
R1 g1888_1 g1888_0 1.58886
.ends

.subckt netg1214 g1214_0 g1214_2 gnd
C1  g1214_0 gnd 1.48629f
C2  g1214_2 gnd 1.48629f
R1 g1214_0 g1214_2 1.58886
.ends

.subckt netg4009 g4009_0 g4009_1 gnd
C1  g4009_0 gnd 1.48629f
C2  g4009_1 gnd 1.48629f
R1 g4009_0 g4009_1 1.58886
.ends

.subckt netg5704 g5704_2 g5704_1 gnd
C1  g5704_2 gnd 1.48629f
C2  g5704_1 gnd 1.48629f
R1 g5704_2 g5704_1 1.58886
.ends

.subckt netg1387 g1387_1 g1387_0 gnd
C1  g1387_1 gnd 1.48629f
C2  g1387_0 gnd 1.48629f
R1 g1387_1 g1387_0 1.58886
.ends

.subckt netg5593 g5593_0 g5593_1 gnd
C1  g5593_0 gnd 1.48629f
C2  g5593_1 gnd 1.48629f
R1 g5593_0 g5593_1 1.58886
.ends

.subckt netg1378 g1378_1 g1378_0 gnd
C1  g1378_1 gnd 1.48629f
C2  g1378_0 gnd 1.48629f
R1 g1378_1 g1378_0 1.58886
.ends

.subckt netg2651 g2651_1 g2651_0 gnd
C1  g2651_1 gnd 1.48629f
C2  g2651_0 gnd 1.48629f
R1 g2651_0 g2651_1 1.58886
.ends

.subckt netg1565 g1565_1 g1565_0 gnd
C1  g1565_1 gnd 1.48629f
C2  g1565_0 gnd 1.48629f
R1 g1565_0 g1565_1 1.58886
.ends

.subckt netg3784 g3784_0 g3784_1 gnd
C1  g3784_0 gnd 1.48629f
C2  g3784_1 gnd 1.48629f
R1 g3784_0 g3784_1 1.58886
.ends

.subckt netg2314 g2314_0 g2314_1 gnd
C1  g2314_0 gnd 1.48629f
C2  g2314_1 gnd 1.48629f
R1 g2314_0 g2314_1 1.58886
.ends

.subckt netg3314 g3314_0 g3314_1 gnd
C1  g3314_0 gnd 1.48629f
C2  g3314_1 gnd 1.48629f
R1 g3314_1 g3314_0 1.58886
.ends

.subckt netg5889 g5889_1 g5889_0 gnd
C1  g5889_1 gnd 1.48629f
C2  g5889_0 gnd 1.48629f
R1 g5889_1 g5889_0 1.58886
.ends

.subckt netg2841 g2841_0 g2841_1 gnd
C1  g2841_0 gnd 1.48629f
C2  g2841_1 gnd 1.48629f
R1 g2841_1 g2841_0 1.58886
.ends

.subckt netg6138 g6138_1 g6138_0 gnd
C1  g6138_1 gnd 1.48629f
C2  g6138_0 gnd 1.48629f
R1 g6138_0 g6138_1 1.58886
.ends

.subckt netg1576 g1576_0 g1576_1 gnd
C1  g1576_0 gnd 1.48629f
C2  g1576_1 gnd 1.48629f
R1 g1576_1 g1576_0 1.58886
.ends

.subckt netg5931 g5931_0 g5931_1 gnd
C1  g5931_0 gnd 1.48629f
C2  g5931_1 gnd 1.48629f
R1 g5931_1 g5931_0 1.58886
.ends

.subckt netg1708 g1708_0 g1708_1 gnd
C1  g1708_0 gnd 1.48629f
C2  g1708_1 gnd 1.48629f
R1 g1708_0 g1708_1 1.58886
.ends

.subckt netg1383 g1383_1 g1383_0 gnd
C1  g1383_1 gnd 1.48629f
C2  g1383_0 gnd 1.48629f
R1 g1383_0 g1383_1 1.58886
.ends

.subckt netg1707 g1707_0 g1707_1 gnd
C1  g1707_0 gnd 1.48629f
C2  g1707_1 gnd 1.48629f
R1 g1707_0 g1707_1 1.58886
.ends

.subckt netg1541 g1541_0 g1541_1 gnd
C1  g1541_0 gnd 1.48629f
C2  g1541_1 gnd 1.48629f
R1 g1541_0 g1541_1 1.58886
.ends

.subckt netg6015 g6015_0 g6015_1 gnd
C1  g6015_0 gnd 1.48629f
C2  g6015_1 gnd 1.48629f
R1 g6015_0 g6015_1 1.58886
.ends

.subckt netg1372 g1372_0 g1372_1 gnd
C1  g1372_0 gnd 1.48629f
C2  g1372_1 gnd 1.48629f
R1 g1372_1 g1372_0 1.58886
.ends

.subckt netg2182 g2182_1 g2182_0 gnd
C1  g2182_1 gnd 1.48629f
C2  g2182_0 gnd 1.48629f
R1 g2182_1 g2182_0 1.58886
.ends

.subckt netg2172 g2172_0 g2172_1 gnd
C1  g2172_0 gnd 1.48629f
C2  g2172_1 gnd 1.48629f
R1 g2172_1 g2172_0 1.58886
.ends

.subckt netg3922 g3922_0 g3922_1 gnd
C1  g3922_0 gnd 1.48629f
C2  g3922_1 gnd 1.48629f
R1 g3922_0 g3922_1 1.58886
.ends

.subckt netg2998 g2998_1 g2998_0 gnd
C1  g2998_1 gnd 1.48629f
C2  g2998_0 gnd 1.48629f
R1 g2998_0 g2998_1 1.58886
.ends

.subckt netg2556 g2556_2 g2556_0 gnd
C1  g2556_2 gnd 1.48629f
C2  g2556_0 gnd 1.48629f
R1 g2556_0 g2556_2 1.58886
.ends

.subckt netg2006 g2006_1 g2006_0 gnd
C1  g2006_1 gnd 1.48629f
C2  g2006_0 gnd 1.48629f
R1 g2006_0 g2006_1 1.58886
.ends

.subckt netg2337 g2337_0 g2337_1 gnd
C1  g2337_0 gnd 1.48629f
C2  g2337_1 gnd 1.48629f
R1 g2337_0 g2337_1 1.58886
.ends

.subckt netg2023 g2023_1 g2023_0 gnd
C1  g2023_1 gnd 1.48629f
C2  g2023_0 gnd 1.48629f
R1 g2023_0 g2023_1 1.58886
.ends

.subckt netg1371 g1371_0 g1371_1 gnd
C1  g1371_0 gnd 1.48629f
C2  g1371_1 gnd 1.48629f
R1 g1371_0 g1371_1 1.58886
.ends

.subckt netg2238 g2238_2 g2238_0 gnd
C1  g2238_2 gnd 1.48629f
C2  g2238_0 gnd 1.48629f
R1 g2238_0 g2238_2 1.58886
.ends

.subckt netg5540 g5540_0 g5540_1 gnd
C1  g5540_0 gnd 1.48629f
C2  g5540_1 gnd 1.48629f
R1 g5540_1 g5540_0 1.58886
.ends

.subckt netg4308 g4308_1 g4308_0 gnd
C1  g4308_1 gnd 1.48629f
C2  g4308_0 gnd 1.48629f
R1 g4308_0 g4308_1 1.58886
.ends

.subckt netg2837 g2837_1 g2837_0 gnd
C1  g2837_1 gnd 1.48629f
C2  g2837_0 gnd 1.48629f
R1 g2837_0 g2837_1 1.58886
.ends

.subckt netg2313 g2313_0 g2313_1 gnd
C1  g2313_0 gnd 1.48629f
C2  g2313_1 gnd 1.48629f
R1 g2313_0 g2313_1 1.58886
.ends

.subckt netg2664 g2664_1 g2664_0 gnd
C1  g2664_1 gnd 1.48629f
C2  g2664_0 gnd 1.48629f
R1 g2664_0 g2664_1 1.58886
.ends

.subckt netg2522 g2522_1 g2522_0 gnd
C1  g2522_1 gnd 1.48629f
C2  g2522_0 gnd 1.48629f
R1 g2522_0 g2522_1 1.58886
.ends

.subckt netg4194 g4194_0 g4194_1 gnd
C1  g4194_0 gnd 1.48629f
C2  g4194_1 gnd 1.48629f
R1 g4194_0 g4194_1 1.58886
.ends

.subckt netg5437 g5437_0 g5437_1 gnd
C1  g5437_0 gnd 1.48629f
C2  g5437_1 gnd 1.48629f
R1 g5437_1 g5437_0 1.58886
.ends

.subckt netg1377 g1377_0 g1377_1 gnd
C1  g1377_0 gnd 1.48629f
C2  g1377_1 gnd 1.48629f
R1 g1377_0 g1377_1 1.58886
.ends

.subckt netg2009 g2009_1 g2009_0 gnd
C1  g2009_1 gnd 1.48629f
C2  g2009_0 gnd 1.48629f
R1 g2009_0 g2009_1 1.58886
.ends

.subckt netg1709 g1709_1 g1709_0 gnd
C1  g1709_1 gnd 1.48629f
C2  g1709_0 gnd 1.48629f
R1 g1709_1 g1709_0 1.58886
.ends

.subckt netg1818 g1818_0 g1818_1 gnd
C1  g1818_0 gnd 1.48629f
C2  g1818_1 gnd 1.48629f
R1 g1818_1 g1818_0 1.58886