* ISCAS85 benchmark circuit SPICE netlist
* generated by spicegen.pl 1.0 
* by Jingye Xu @ VLSI group, Dept of ECE, UIC

.INCLUDE ../../technology/45nm_HP.pm
.OPTIONS GMIN=1e-5 ABSTOL=1e-18 ACCT

**** the input ports: g21_1 g18_0 g32_4 g30_0 g12_2 g24_2 g5_0 g9_2 g14_2 g3_0 g26_2 g10_2 g15_1 g7_1 g31_3 g17_0 g27_2 g11_0 g22_1 g4_2 g29_2 g20_2 g23_1 g13_1 g2_1 g19_3 g8_0 g16_1 g6_2 g1_0 g28_0 g25_0 g33_2 ****
**** the output ports: g1894_0 g1908_1 g1900_0 g1895_0 g1892_0 g1901_1 g1889_0 g1888_1 g1885_1 g1887_1 g1891_0 g1896_1 g1904_0 g1898_1 g1906_1 g1884_0 g1907_1 g1902_0 g1893_0 g1903_0 g1890_1 g1897_1 g1886_0 g1905_1 g1899_0 ****

* the voltage sources: 
Vdd vdd gnd DC 1.8

* the input ports: 
V1 g21_1 gnd pulse(0 1 0p 200p 100p 1n 2n)
V2 g18_0 gnd pulse(0 1 0p 200p 100p 1n 2n)
V3 g32_4 gnd pulse(0 1 0p 200p 100p 1n 2n)
V4 g30_0 gnd pulse(0 1 0p 200p 100p 1n 2n)
V5 g12_2 gnd pulse(0 1 0p 200p 100p 1n 2n)
V6 g24_2 gnd pulse(0 1 0p 200p 100p 1n 2n)
V7 g5_0 gnd pulse(0 1 0p 200p 100p 1n 2n)
V8 g9_2 gnd pulse(0 1 0p 200p 100p 1n 2n)
V9 g14_2 gnd pulse(0 1 0p 200p 100p 1n 2n)
V10 g3_0 gnd pulse(0 1 0p 200p 100p 1n 2n)
V11 g26_2 gnd pulse(0 1 0p 200p 100p 1n 2n)
V12 g10_2 gnd pulse(0 1 0p 200p 100p 1n 2n)
V13 g15_1 gnd pulse(0 1 0p 200p 100p 1n 2n)
V14 g7_1 gnd pulse(0 1 0p 200p 100p 1n 2n)
V15 g31_3 gnd pulse(0 1 0p 200p 100p 1n 2n)
V16 g17_0 gnd pulse(0 1 0p 200p 100p 1n 2n)
V17 g27_2 gnd pulse(0 1 0p 200p 100p 1n 2n)
V18 g11_0 gnd pulse(0 1 0p 200p 100p 1n 2n)
V19 g22_1 gnd pulse(0 1 0p 200p 100p 1n 2n)
V20 g4_2 gnd pulse(0 1 0p 200p 100p 1n 2n)
V21 g29_2 gnd pulse(0 1 0p 200p 100p 1n 2n)
V22 g20_2 gnd pulse(0 1 0p 200p 100p 1n 2n)
V23 g23_1 gnd pulse(0 1 0p 200p 100p 1n 2n)
V24 g13_1 gnd pulse(0 1 0p 200p 100p 1n 2n)
V25 g2_1 gnd pulse(0 1 0p 200p 100p 1n 2n)
V26 g19_3 gnd pulse(0 1 0p 200p 100p 1n 2n)
V27 g8_0 gnd pulse(0 1 0p 200p 100p 1n 2n)
V28 g16_1 gnd pulse(0 1 0p 200p 100p 1n 2n)
V29 g6_2 gnd pulse(0 1 0p 200p 100p 1n 2n)
V30 g1_0 gnd pulse(0 1 0p 200p 100p 1n 2n)
V31 g28_0 gnd pulse(0 1 0p 200p 100p 1n 2n)
V32 g25_0 gnd pulse(0 1 0p 200p 100p 1n 2n)
V33 g33_2 gnd pulse(0 1 0p 200p 100p 1n 2n)

* the net sub circuits: 

.subckt netg1265 g1265_1 g1265_0 gnd
C1  g1265_1 gnd 1.189032f
C2  g1265_0 gnd 1.189032f
R1 g1265_0 g1265_1 1.271088
.ends

.subckt netg1269 g1269_1 g1269_0 gnd
C1  g1269_1 gnd 1.189032f
C2  g1269_0 gnd 1.189032f
R1 g1269_0 g1269_1 1.271088
.ends

.subckt netg1250 g1250_0 g1250_1 gnd
C1  g1250_0 gnd 1.189032f
C2  g1250_1 gnd 1.189032f
R1 g1250_0 g1250_1 1.271088
.ends

.subckt netg976 g976_1 g976_0 gnd
C1  g976_1 gnd 1.189032f
C2  g976_0 gnd 1.189032f
R1 g976_1 g976_0 1.271088
.ends

.subckt netg1866 g1866_1 g1866_0 gnd
C1  g1866_1 gnd 1.189032f
C2  g1866_0 gnd 1.189032f
R1 g1866_0 g1866_1 1.271088
.ends

.subckt netg534 g534_1 g534_0 gnd
C1  g534_1 gnd 1.189032f
C2  g534_0 gnd 1.189032f
R1 g534_0 g534_1 1.271088
.ends

.subckt netg235 g235_1 g235_0 gnd
C1  g235_1 gnd 1.189032f
C2  g235_0 gnd 1.189032f
R1 g235_1 g235_0 1.271088
.ends

.subckt netg605 g605_0 g605_1 gnd
C1  g605_0 gnd 1.189032f
C2  g605_1 gnd 1.189032f
R1 g605_1 g605_0 1.271088
.ends

.subckt netg793 g793_1 g793_0 gnd
C1  g793_1 gnd 1.189032f
C2  g793_0 gnd 1.189032f
R1 g793_0 g793_1 1.271088
.ends

.subckt netg1777 g1777_1 g1777_0 gnd
C1  g1777_1 gnd 1.189032f
C2  g1777_0 gnd 1.189032f
R1 g1777_1 g1777_0 1.271088
.ends

.subckt netx172 x172_0 x172_1 gnd
C1  x172_0 gnd 1.189032f
C2  x172_1 gnd 1.189032f
R1 x172_0 x172_1 1.271088
.ends

.subckt netg623 g623_1 g623_0 gnd
C1  g623_1 gnd 1.189032f
C2  g623_0 gnd 1.189032f
R1 g623_1 g623_0 1.271088
.ends

.subckt netg1031 g1031_0 g1031_2 gnd
C1  g1031_0 gnd 1.189032f
C2  g1031_2 gnd 1.189032f
R1 g1031_0 g1031_2 1.271088
.ends

.subckt netg1312 g1312_0 g1312_1 gnd
C1  g1312_0 gnd 1.189032f
C2  g1312_1 gnd 1.189032f
R1 g1312_1 g1312_0 1.271088
.ends

.subckt netx291 x291_0 x291_1 gnd
C1  x291_0 gnd 1.189032f
C2  x291_1 gnd 1.189032f
R1 x291_0 x291_1 1.271088
.ends

.subckt netg1023 g1023_0 g1023_1 gnd
C1  g1023_0 gnd 1.189032f
C2  g1023_1 gnd 1.189032f
R1 g1023_0 g1023_1 1.271088
.ends

.subckt netg1369 g1369_1 g1369_0 gnd
C1  g1369_1 gnd 1.189032f
C2  g1369_0 gnd 1.189032f
R1 g1369_0 g1369_1 1.271088
.ends

.subckt netx252 x252_0 x252_1 gnd
C1  x252_0 gnd 1.189032f
C2  x252_1 gnd 1.189032f
R1 x252_0 x252_1 1.271088
.ends

.subckt netg839 g839_0 g839_1 gnd
C1  g839_0 gnd 1.189032f
C2  g839_1 gnd 1.189032f
R1 g839_0 g839_1 1.271088
.ends

.subckt netg966 g966_0 g966_1 gnd
C1  g966_0 gnd 1.189032f
C2  g966_1 gnd 1.189032f
R1 g966_1 g966_0 1.271088
.ends

.subckt netg724 g724_0 g724_1 gnd
C1  g724_0 gnd 1.189032f
C2  g724_1 gnd 1.189032f
R1 g724_1 g724_0 1.271088
.ends

.subckt netg1756 g1756_0 g1756_1 gnd
C1  g1756_0 gnd 1.189032f
C2  g1756_1 gnd 1.189032f
R1 g1756_1 g1756_0 1.271088
.ends

.subckt netx42 x42_1 x42_0 gnd
C1  x42_1 gnd 1.189032f
C2  x42_0 gnd 1.189032f
R1 x42_0 x42_1 1.271088
.ends

.subckt netg1092 g1092_1 g1092_0 gnd
C1  g1092_1 gnd 1.189032f
C2  g1092_0 gnd 1.189032f
R1 g1092_0 g1092_1 1.271088
.ends

.subckt netg856 g856_0 g856_1 gnd
C1  g856_0 gnd 1.189032f
C2  g856_1 gnd 1.189032f
R1 g856_0 g856_1 1.271088
.ends

.subckt netg401 g401_2 g401_1 gnd
C1  g401_2 gnd 1.189032f
C2  g401_1 gnd 1.189032f
R1 g401_1 g401_2 1.271088
.ends

.subckt netx362 x362_1 x362_0 gnd
C1  x362_1 gnd 1.189032f
C2  x362_0 gnd 1.189032f
R1 x362_0 x362_1 1.271088
.ends

.subckt netg715 g715_0 g715_1 gnd
C1  g715_0 gnd 1.189032f
C2  g715_1 gnd 1.189032f
R1 g715_1 g715_0 1.271088
.ends

.subckt netx162 x162_1 x162_0 gnd
C1  x162_1 gnd 1.189032f
C2  x162_0 gnd 1.189032f
R1 x162_1 x162_0 1.271088
.ends

.subckt netg917 g917_0 g917_1 gnd
C1  g917_0 gnd 1.189032f
C2  g917_1 gnd 1.189032f
R1 g917_1 g917_0 1.271088
.ends

.subckt netx242 x242_1 x242_0 gnd
C1  x242_1 gnd 1.189032f
C2  x242_0 gnd 1.189032f
R1 x242_0 x242_1 1.271088
.ends

.subckt netg1156 g1156_1 g1156_0 gnd
C1  g1156_1 gnd 1.189032f
C2  g1156_0 gnd 1.189032f
R1 g1156_0 g1156_1 1.271088
.ends

.subckt netg1794 g1794_0 g1794_1 gnd
C1  g1794_0 gnd 1.189032f
C2  g1794_1 gnd 1.189032f
R1 g1794_1 g1794_0 1.271088
.ends

.subckt netg776 g776_1 g776_0 gnd
C1  g776_1 gnd 1.189032f
C2  g776_0 gnd 1.189032f
R1 g776_1 g776_0 1.271088
.ends

.subckt netg627 g627_0 g627_1 gnd
C1  g627_0 gnd 1.189032f
C2  g627_1 gnd 1.189032f
R1 g627_1 g627_0 1.271088
.ends

.subckt netg1325 g1325_1 g1325_0 gnd
C1  g1325_1 gnd 1.189032f
C2  g1325_0 gnd 1.189032f
R1 g1325_0 g1325_1 1.271088
.ends

.subckt netg1869 g1869_1 g1869_0 gnd
C1  g1869_1 gnd 1.189032f
C2  g1869_0 gnd 1.189032f
R1 g1869_1 g1869_0 1.271088
.ends

.subckt netg920 g920_0 g920_1 gnd
C1  g920_0 gnd 1.189032f
C2  g920_1 gnd 1.189032f
R1 g920_0 g920_1 1.271088
.ends

.subckt netg904 g904_0 g904_1 gnd
C1  g904_0 gnd 1.189032f
C2  g904_1 gnd 1.189032f
R1 g904_1 g904_0 1.271088
.ends

.subckt netg734 g734_1 g734_0 gnd
C1  g734_1 gnd 1.189032f
C2  g734_0 gnd 1.189032f
R1 g734_0 g734_1 1.271088
.ends

.subckt netg787 g787_1 g787_0 gnd
C1  g787_1 gnd 1.189032f
C2  g787_0 gnd 1.189032f
R1 g787_0 g787_1 1.271088
.ends

.subckt netx72 x72_1 x72_0 gnd
C1  x72_1 gnd 1.189032f
C2  x72_0 gnd 1.189032f
R1 x72_1 x72_0 1.271088
.ends

.subckt netg930 g930_1 g930_0 gnd
C1  g930_1 gnd 1.189032f
C2  g930_0 gnd 1.189032f
R1 g930_1 g930_0 1.271088
.ends

.subckt netg567 g567_0 g567_1 gnd
C1  g567_0 gnd 1.189032f
C2  g567_1 gnd 1.189032f
R1 g567_1 g567_0 1.271088
.ends

.subckt netg783 g783_1 g783_0 gnd
C1  g783_1 gnd 1.189032f
C2  g783_0 gnd 1.189032f
R1 g783_1 g783_0 1.271088
.ends

.subckt netg1800 g1800_0 g1800_1 gnd
C1  g1800_0 gnd 1.189032f
C2  g1800_1 gnd 1.189032f
R1 g1800_1 g1800_0 1.271088
.ends

.subckt netg381 g381_0 g381_1 gnd
C1  g381_0 gnd 1.189032f
C2  g381_1 gnd 1.189032f
R1 g381_0 g381_1 1.271088
.ends

.subckt netg971 g971_1 g971_0 gnd
C1  g971_1 gnd 1.189032f
C2  g971_0 gnd 1.189032f
R1 g971_1 g971_0 1.271088
.ends

.subckt netg561 g561_1 g561_0 gnd
C1  g561_1 gnd 1.189032f
C2  g561_0 gnd 1.189032f
R1 g561_0 g561_1 1.271088
.ends

.subckt netg362 g362_2 g362_0 gnd
C1  g362_2 gnd 1.189032f
C2  g362_0 gnd 1.189032f
R1 g362_2 g362_0 1.271088
.ends

.subckt netg1358 g1358_0 g1358_1 gnd
C1  g1358_0 gnd 1.189032f
C2  g1358_1 gnd 1.189032f
R1 g1358_1 g1358_0 1.271088
.ends

.subckt netg656 g656_0 g656_1 gnd
C1  g656_0 gnd 1.189032f
C2  g656_1 gnd 1.189032f
R1 g656_1 g656_0 1.271088
.ends

.subckt netg1341 g1341_1 g1341_0 gnd
C1  g1341_1 gnd 1.189032f
C2  g1341_0 gnd 1.189032f
R1 g1341_1 g1341_0 1.271088
.ends

.subckt netg1154 g1154_0 g1154_1 gnd
C1  g1154_0 gnd 1.189032f
C2  g1154_1 gnd 1.189032f
R1 g1154_0 g1154_1 1.271088
.ends

.subckt netg725 g725_1 g725_0 gnd
C1  g725_1 gnd 1.189032f
C2  g725_0 gnd 1.189032f
R1 g725_1 g725_0 1.271088
.ends

.subckt netg1143 g1143_1 g1143_0 gnd
C1  g1143_1 gnd 1.189032f
C2  g1143_0 gnd 1.189032f
R1 g1143_1 g1143_0 1.271088
.ends

.subckt netg650 g650_0 g650_1 gnd
C1  g650_0 gnd 1.189032f
C2  g650_1 gnd 1.189032f
R1 g650_1 g650_0 1.271088
.ends

.subckt netg1003 g1003_1 g1003_2 gnd
C1  g1003_1 gnd 1.189032f
C2  g1003_2 gnd 1.189032f
R1 g1003_2 g1003_1 1.271088
.ends

.subckt netg320 g320_0 g320_1 gnd
C1  g320_0 gnd 1.189032f
C2  g320_1 gnd 1.189032f
R1 g320_1 g320_0 1.271088
.ends

.subckt netg1766 g1766_0 g1766_1 gnd
C1  g1766_0 gnd 1.189032f
C2  g1766_1 gnd 1.189032f
R1 g1766_1 g1766_0 1.271088
.ends

.subckt netg1125 g1125_0 g1125_1 gnd
C1  g1125_0 gnd 1.189032f
C2  g1125_1 gnd 1.189032f
R1 g1125_1 g1125_0 1.271088
.ends

.subckt netg317 g317_1 g317_0 gnd
C1  g317_1 gnd 1.189032f
C2  g317_0 gnd 1.189032f
R1 g317_0 g317_1 1.271088
.ends

.subckt netg648 g648_1 g648_0 gnd
C1  g648_1 gnd 1.189032f
C2  g648_0 gnd 1.189032f
R1 g648_0 g648_1 1.271088
.ends

.subckt netg1091 g1091_1 g1091_0 gnd
C1  g1091_1 gnd 1.189032f
C2  g1091_0 gnd 1.189032f
R1 g1091_0 g1091_1 1.271088
.ends

.subckt netg1099 g1099_0 g1099_1 gnd
C1  g1099_0 gnd 1.189032f
C2  g1099_1 gnd 1.189032f
R1 g1099_1 g1099_0 1.271088
.ends

.subckt netg1479 g1479_1 g1479_0 gnd
C1  g1479_1 gnd 1.189032f
C2  g1479_0 gnd 1.189032f
R1 g1479_1 g1479_0 1.271088
.ends

.subckt netg313 g313_1 g313_0 gnd
C1  g313_1 gnd 1.189032f
C2  g313_0 gnd 1.189032f
R1 g313_0 g313_1 1.271088
.ends

.subckt netx312 x312_0 x312_1 gnd
C1  x312_0 gnd 1.189032f
C2  x312_1 gnd 1.189032f
R1 x312_1 x312_0 1.271088
.ends

.subckt netg1838 g1838_1 g1838_0 gnd
C1  g1838_1 gnd 1.189032f
C2  g1838_0 gnd 1.189032f
R1 g1838_1 g1838_0 1.271088
.ends

.subckt netg1624 g1624_1 g1624_0 gnd
C1  g1624_1 gnd 1.189032f
C2  g1624_0 gnd 1.189032f
R1 g1624_0 g1624_1 1.271088
.ends

.subckt netg998 g998_0 g998_1 gnd
C1  g998_0 gnd 1.189032f
C2  g998_1 gnd 1.189032f
R1 g998_0 g998_1 1.271088
.ends

.subckt netg330 g330_1 g330_0 gnd
C1  g330_1 gnd 1.189032f
C2  g330_0 gnd 1.189032f
R1 g330_0 g330_1 1.271088
.ends

.subckt netg1335 g1335_1 g1335_0 gnd
C1  g1335_1 gnd 1.189032f
C2  g1335_0 gnd 1.189032f
R1 g1335_0 g1335_1 1.271088
.ends

.subckt netg932 g932_1 g932_0 gnd
C1  g932_1 gnd 1.189032f
C2  g932_0 gnd 1.189032f
R1 g932_0 g932_1 1.271088
.ends

.subckt netg1169 g1169_1 g1169_0 gnd
C1  g1169_1 gnd 1.189032f
C2  g1169_0 gnd 1.189032f
R1 g1169_1 g1169_0 1.271088
.ends

.subckt netg988 g988_0 g988_1 gnd
C1  g988_0 gnd 1.189032f
C2  g988_1 gnd 1.189032f
R1 g988_0 g988_1 1.271088
.ends

.subckt netg1371 g1371_1 g1371_2 gnd
C1  g1371_1 gnd 1.189032f
C2  g1371_2 gnd 1.189032f
R1 g1371_2 g1371_1 1.271088
.ends

.subckt netx322 x322_1 x322_0 gnd
C1  x322_1 gnd 1.189032f
C2  x322_0 gnd 1.189032f
R1 x322_0 x322_1 1.271088
.ends

.subckt netg699 g699_1 g699_0 gnd
C1  g699_1 gnd 1.189032f
C2  g699_0 gnd 1.189032f
R1 g699_1 g699_0 1.271088
.ends

.subckt netg1801 g1801_1 g1801_0 gnd
C1  g1801_1 gnd 1.189032f
C2  g1801_0 gnd 1.189032f
R1 g1801_0 g1801_1 1.271088
.ends

.subckt netg1309 g1309_1 g1309_0 gnd
C1  g1309_1 gnd 1.189032f
C2  g1309_0 gnd 1.189032f
R1 g1309_0 g1309_1 1.271088
.ends

.subckt netg944 g944_1 g944_0 gnd
C1  g944_1 gnd 1.189032f
C2  g944_0 gnd 1.189032f
R1 g944_0 g944_1 1.271088
.ends

.subckt netg1775 g1775_0 g1775_1 gnd
C1  g1775_0 gnd 1.189032f
C2  g1775_1 gnd 1.189032f
R1 g1775_1 g1775_0 1.271088
.ends

.subckt netg1717 g1717_0 g1717_1 gnd
C1  g1717_0 gnd 1.189032f
C2  g1717_1 gnd 1.189032f
R1 g1717_1 g1717_0 1.271088
.ends

.subckt netg1468 g1468_1 g1468_0 gnd
C1  g1468_1 gnd 1.189032f
C2  g1468_0 gnd 1.189032f
R1 g1468_1 g1468_0 1.271088
.ends

.subckt netg807 g807_1 g807_0 gnd
C1  g807_1 gnd 1.189032f
C2  g807_0 gnd 1.189032f
R1 g807_0 g807_1 1.271088
.ends

.subckt netg1773 g1773_1 g1773_0 gnd
C1  g1773_1 gnd 1.189032f
C2  g1773_0 gnd 1.189032f
R1 g1773_1 g1773_0 1.271088
.ends

.subckt netg1460 g1460_1 g1460_0 gnd
C1  g1460_1 gnd 1.189032f
C2  g1460_0 gnd 1.189032f
R1 g1460_1 g1460_0 1.271088
.ends

.subckt netg1853 g1853_0 g1853_1 gnd
C1  g1853_0 gnd 1.189032f
C2  g1853_1 gnd 1.189032f
R1 g1853_0 g1853_1 1.271088
.ends

.subckt netx272 x272_1 x272_0 gnd
C1  x272_1 gnd 1.189032f
C2  x272_0 gnd 1.189032f
R1 x272_0 x272_1 1.271088
.ends

.subckt netg542 g542_1 g542_0 gnd
C1  g542_1 gnd 1.189032f
C2  g542_0 gnd 1.189032f
R1 g542_0 g542_1 1.271088
.ends

.subckt netg965 g965_0 g965_1 gnd
C1  g965_0 gnd 1.189032f
C2  g965_1 gnd 1.189032f
R1 g965_0 g965_1 1.271088
.ends

.subckt netg1129 g1129_1 g1129_0 gnd
C1  g1129_1 gnd 1.189032f
C2  g1129_0 gnd 1.189032f
R1 g1129_1 g1129_0 1.271088
.ends

.subckt netg319 g319_1 g319_0 gnd
C1  g319_1 gnd 1.189032f
C2  g319_0 gnd 1.189032f
R1 g319_1 g319_0 1.271088
.ends

.subckt netg972 g972_1 g972_0 gnd
C1  g972_1 gnd 1.189032f
C2  g972_0 gnd 1.189032f
R1 g972_1 g972_0 1.271088
.ends

.subckt netx22 x22_1 x22_0 gnd
C1  x22_1 gnd 1.189032f
C2  x22_0 gnd 1.189032f
R1 x22_1 x22_0 1.271088
.ends

.subckt netg536 g536_1 g536_0 gnd
C1  g536_1 gnd 1.189032f
C2  g536_0 gnd 1.189032f
R1 g536_0 g536_1 1.271088
.ends

.subckt netg1876 g1876_0 g1876_1 gnd
C1  g1876_0 gnd 1.189032f
C2  g1876_1 gnd 1.189032f
R1 g1876_0 g1876_1 1.271088
.ends

.subckt netg1782 g1782_0 g1782_1 gnd
C1  g1782_0 gnd 1.189032f
C2  g1782_1 gnd 1.189032f
R1 g1782_0 g1782_1 1.271088
.ends

.subckt netg718 g718_1 g718_0 gnd
C1  g718_1 gnd 1.189032f
C2  g718_0 gnd 1.189032f
R1 g718_0 g718_1 1.271088
.ends

.subckt netg326 g326_0 g326_1 gnd
C1  g326_0 gnd 1.189032f
C2  g326_1 gnd 1.189032f
R1 g326_1 g326_0 1.271088
.ends

.subckt netg1382 g1382_1 g1382_0 gnd
C1  g1382_1 gnd 1.189032f
C2  g1382_0 gnd 1.189032f
R1 g1382_0 g1382_1 1.271088
.ends

.subckt netg619 g619_0 g619_1 gnd
C1  g619_0 gnd 1.189032f
C2  g619_1 gnd 1.189032f
R1 g619_0 g619_1 1.271088
.ends

.subckt netg1219 g1219_1 g1219_0 gnd
C1  g1219_1 gnd 1.189032f
C2  g1219_0 gnd 1.189032f
R1 g1219_1 g1219_0 1.271088
.ends

.subckt netg860 g860_1 g860_0 gnd
C1  g860_1 gnd 1.189032f
C2  g860_0 gnd 1.189032f
R1 g860_0 g860_1 1.271088
.ends

.subckt netg1117 g1117_1 g1117_0 gnd
C1  g1117_1 gnd 1.189032f
C2  g1117_0 gnd 1.189032f
R1 g1117_0 g1117_1 1.271088
.ends

.subckt netg1748 g1748_1 g1748_0 gnd
C1  g1748_1 gnd 1.189032f
C2  g1748_0 gnd 1.189032f
R1 g1748_1 g1748_0 1.271088
.ends

.subckt netg927 g927_1 g927_0 gnd
C1  g927_1 gnd 1.189032f
C2  g927_0 gnd 1.189032f
R1 g927_0 g927_1 1.271088
.ends

.subckt netg1012 g1012_2 g1012_0 gnd
C1  g1012_2 gnd 1.189032f
C2  g1012_0 gnd 1.189032f
R1 g1012_0 g1012_2 1.271088
.ends

.subckt netg780 g780_1 g780_0 gnd
C1  g780_1 gnd 1.189032f
C2  g780_0 gnd 1.189032f
R1 g780_1 g780_0 1.271088
.ends

.subckt netg635 g635_0 g635_1 gnd
C1  g635_0 gnd 1.189032f
C2  g635_1 gnd 1.189032f
R1 g635_0 g635_1 1.271088
.ends

.subckt netg843 g843_1 g843_0 gnd
C1  g843_1 gnd 1.189032f
C2  g843_0 gnd 1.189032f
R1 g843_1 g843_0 1.271088
.ends

.subckt netg1716 g1716_1 g1716_0 gnd
C1  g1716_1 gnd 1.189032f
C2  g1716_0 gnd 1.189032f
R1 g1716_1 g1716_0 1.271088
.ends

.subckt netg1283 g1283_1 g1283_0 gnd
C1  g1283_1 gnd 1.189032f
C2  g1283_0 gnd 1.189032f
R1 g1283_1 g1283_0 1.271088
.ends

.subckt netx332 x332_1 x332_0 gnd
C1  x332_1 gnd 1.189032f
C2  x332_0 gnd 1.189032f
R1 x332_1 x332_0 1.271088
.ends

.subckt netg1098 g1098_0 g1098_1 gnd
C1  g1098_0 gnd 1.189032f
C2  g1098_1 gnd 1.189032f
R1 g1098_0 g1098_1 1.271088
.ends

.subckt netg1308 g1308_1 g1308_0 gnd
C1  g1308_1 gnd 1.189032f
C2  g1308_0 gnd 1.189032f
R1 g1308_1 g1308_0 1.271088
.ends

.subckt netg198 g198_1 g198_0 gnd
C1  g198_1 gnd 1.189032f
C2  g198_0 gnd 1.189032f
R1 g198_0 g198_1 1.271088
.ends

.subckt netg775 g775_0 g775_1 gnd
C1  g775_0 gnd 1.189032f
C2  g775_1 gnd 1.189032f
R1 g775_0 g775_1 1.271088
.ends

.subckt netg564 g564_1 g564_0 gnd
C1  g564_1 gnd 1.189032f
C2  g564_0 gnd 1.189032f
R1 g564_1 g564_0 1.271088
.ends

.subckt netg925 g925_1 g925_0 gnd
C1  g925_1 gnd 1.189032f
C2  g925_0 gnd 1.189032f
R1 g925_1 g925_0 1.271088
.ends

.subckt netg1783 g1783_0 g1783_1 gnd
C1  g1783_0 gnd 1.189032f
C2  g1783_1 gnd 1.189032f
R1 g1783_1 g1783_0 1.271088
.ends

.subckt netg906 g906_0 g906_1 gnd
C1  g906_0 gnd 1.189032f
C2  g906_1 gnd 1.189032f
R1 g906_1 g906_0 1.271088
.ends

.subckt netg808 g808_1 g808_0 gnd
C1  g808_1 gnd 1.189032f
C2  g808_0 gnd 1.189032f
R1 g808_0 g808_1 1.271088
.ends

.subckt netg334 g334_0 g334_1 gnd
C1  g334_0 gnd 1.189032f
C2  g334_1 gnd 1.189032f
R1 g334_0 g334_1 1.271088
.ends

.subckt netg1037 g1037_1 g1037_0 gnd
C1  g1037_1 gnd 1.189032f
C2  g1037_0 gnd 1.189032f
R1 g1037_1 g1037_0 1.271088
.ends

.subckt netg185 g185_0 g185_2 gnd
C1  g185_0 gnd 1.189032f
C2  g185_2 gnd 1.189032f
R1 g185_0 g185_2 1.271088
.ends

.subckt netg795 g795_0 g795_1 gnd
C1  g795_0 gnd 1.189032f
C2  g795_1 gnd 1.189032f
R1 g795_0 g795_1 1.271088
.ends

.subckt netg1131 g1131_1 g1131_0 gnd
C1  g1131_1 gnd 1.189032f
C2  g1131_0 gnd 1.189032f
R1 g1131_1 g1131_0 1.271088
.ends

.subckt netg325 g325_0 g325_1 gnd
C1  g325_0 gnd 1.189032f
C2  g325_1 gnd 1.189032f
R1 g325_1 g325_0 1.271088
.ends

.subckt netg1473 g1473_0 g1473_1 gnd
C1  g1473_0 gnd 1.189032f
C2  g1473_1 gnd 1.189032f
R1 g1473_1 g1473_0 1.271088
.ends

.subckt netg714 g714_1 g714_0 gnd
C1  g714_1 gnd 1.189032f
C2  g714_0 gnd 1.189032f
R1 g714_0 g714_1 1.271088
.ends

.subckt netg1268 g1268_1 g1268_0 gnd
C1  g1268_1 gnd 1.189032f
C2  g1268_0 gnd 1.189032f
R1 g1268_1 g1268_0 1.271088
.ends

.subckt netg1362 g1362_1 g1362_0 gnd
C1  g1362_1 gnd 1.189032f
C2  g1362_0 gnd 1.189032f
R1 g1362_1 g1362_0 1.271088
.ends

.subckt netg896 g896_0 g896_1 gnd
C1  g896_0 gnd 1.189032f
C2  g896_1 gnd 1.189032f
R1 g896_0 g896_1 1.271088
.ends

.subckt netg867 g867_1 g867_2 gnd
C1  g867_1 gnd 1.189032f
C2  g867_2 gnd 1.189032f
R1 g867_1 g867_2 1.271088
.ends

.subckt netx52 x52_1 x52_0 gnd
C1  x52_1 gnd 1.189032f
C2  x52_0 gnd 1.189032f
R1 x52_1 x52_0 1.271088
.ends

.subckt netg1282 g1282_1 g1282_0 gnd
C1  g1282_1 gnd 1.189032f
C2  g1282_0 gnd 1.189032f
R1 g1282_1 g1282_0 1.271088
.ends

.subckt netg784 g784_1 g784_0 gnd
C1  g784_1 gnd 1.189032f
C2  g784_0 gnd 1.189032f
R1 g784_1 g784_0 1.271088
.ends

.subckt netg566 g566_1 g566_0 gnd
C1  g566_1 gnd 1.189032f
C2  g566_0 gnd 1.189032f
R1 g566_0 g566_1 1.271088
.ends

.subckt netg1036 g1036_0 g1036_1 gnd
C1  g1036_0 gnd 1.189032f
C2  g1036_1 gnd 1.189032f
R1 g1036_0 g1036_1 1.271088
.ends

.subckt netg781 g781_1 g781_0 gnd
C1  g781_1 gnd 1.189032f
C2  g781_0 gnd 1.189032f
R1 g781_0 g781_1 1.271088
.ends

.subckt netg728 g728_1 g728_0 gnd
C1  g728_1 gnd 1.189032f
C2  g728_0 gnd 1.189032f
R1 g728_1 g728_0 1.271088
.ends

.subckt netg774 g774_0 g774_1 gnd
C1  g774_0 gnd 1.189032f
C2  g774_1 gnd 1.189032f
R1 g774_0 g774_1 1.271088
.ends

.subckt netg1221 g1221_1 g1221_0 gnd
C1  g1221_1 gnd 1.189032f
C2  g1221_0 gnd 1.189032f
R1 g1221_0 g1221_1 1.271088
.ends

.subckt netg1239 g1239_1 g1239_0 gnd
C1  g1239_1 gnd 1.189032f
C2  g1239_0 gnd 1.189032f
R1 g1239_0 g1239_1 1.271088
.ends

.subckt netg924 g924_0 g924_1 gnd
C1  g924_0 gnd 1.189032f
C2  g924_1 gnd 1.189032f
R1 g924_1 g924_0 1.271088
.ends

.subckt netg1310 g1310_0 g1310_1 gnd
C1  g1310_0 gnd 1.189032f
C2  g1310_1 gnd 1.189032f
R1 g1310_1 g1310_0 1.271088
.ends

.subckt netg964 g964_1 g964_0 gnd
C1  g964_1 gnd 1.189032f
C2  g964_0 gnd 1.189032f
R1 g964_1 g964_0 1.271088
.ends

.subckt netg1776 g1776_1 g1776_0 gnd
C1  g1776_1 gnd 1.189032f
C2  g1776_0 gnd 1.189032f
R1 g1776_0 g1776_1 1.271088
.ends

.subckt netg1201 g1201_1 g1201_0 gnd
C1  g1201_1 gnd 1.189032f
C2  g1201_0 gnd 1.189032f
R1 g1201_1 g1201_0 1.271088
.ends

.subckt netg1713 g1713_1 g1713_0 gnd
C1  g1713_1 gnd 1.189032f
C2  g1713_0 gnd 1.189032f
R1 g1713_1 g1713_0 1.271088
.ends

.subckt netg1166 g1166_0 g1166_1 gnd
C1  g1166_0 gnd 1.189032f
C2  g1166_1 gnd 1.189032f
R1 g1166_0 g1166_1 1.271088
.ends

.subckt netg980 g980_1 g980_0 gnd
C1  g980_1 gnd 1.189032f
C2  g980_0 gnd 1.189032f
R1 g980_0 g980_1 1.271088
.ends

.subckt netg908 g908_1 g908_0 gnd
C1  g908_1 gnd 1.189032f
C2  g908_0 gnd 1.189032f
R1 g908_0 g908_1 1.271088
.ends

.subckt netg333 g333_1 g333_0 gnd
C1  g333_1 gnd 1.189032f
C2  g333_0 gnd 1.189032f
R1 g333_0 g333_1 1.271088
.ends

.subckt netx451 x451_1 x451_0 gnd
C1  x451_1 gnd 1.189032f
C2  x451_0 gnd 1.189032f
R1 x451_0 x451_1 1.271088
.ends

.subckt netx372 x372_0 x372_1 gnd
C1  x372_0 gnd 1.189032f
C2  x372_1 gnd 1.189032f
R1 x372_0 x372_1 1.271088
.ends

.subckt netg1130 g1130_1 g1130_0 gnd
C1  g1130_1 gnd 1.189032f
C2  g1130_0 gnd 1.189032f
R1 g1130_1 g1130_0 1.271088
.ends

.subckt netg788 g788_1 g788_0 gnd
C1  g788_1 gnd 1.189032f
C2  g788_0 gnd 1.189032f
R1 g788_1 g788_0 1.271088
.ends

.subckt netg560 g560_0 g560_1 gnd
C1  g560_0 gnd 1.189032f
C2  g560_1 gnd 1.189032f
R1 g560_0 g560_1 1.271088
.ends

.subckt netg1155 g1155_1 g1155_0 gnd
C1  g1155_1 gnd 1.189032f
C2  g1155_0 gnd 1.189032f
R1 g1155_0 g1155_1 1.271088
.ends

.subckt netx82 x82_1 x82_0 gnd
C1  x82_1 gnd 1.189032f
C2  x82_0 gnd 1.189032f
R1 x82_1 x82_0 1.271088
.ends

.subckt netg1244 g1244_0 g1244_1 gnd
C1  g1244_0 gnd 1.189032f
C2  g1244_1 gnd 1.189032f
R1 g1244_1 g1244_0 1.271088
.ends

.subckt netg1174 g1174_0 g1174_1 gnd
C1  g1174_0 gnd 1.189032f
C2  g1174_1 gnd 1.189032f
R1 g1174_0 g1174_1 1.271088
.ends

.subckt netg782 g782_0 g782_1 gnd
C1  g782_0 gnd 1.189032f
C2  g782_1 gnd 1.189032f
R1 g782_1 g782_0 1.271088
.ends

.subckt netg945 g945_0 g945_1 gnd
C1  g945_0 gnd 1.189032f
C2  g945_1 gnd 1.189032f
R1 g945_0 g945_1 1.271088
.ends

.subckt netg1260 g1260_0 g1260_1 gnd
C1  g1260_0 gnd 1.189032f
C2  g1260_1 gnd 1.189032f
R1 g1260_0 g1260_1 1.271088
.ends

.subckt netg631 g631_0 g631_1 gnd
C1  g631_0 gnd 1.189032f
C2  g631_1 gnd 1.189032f
R1 g631_0 g631_1 1.271088
.ends

.subckt netx192 x192_1 x192_0 gnd
C1  x192_1 gnd 1.189032f
C2  x192_0 gnd 1.189032f
R1 x192_0 x192_1 1.271088
.ends

.subckt netg931 g931_1 g931_0 gnd
C1  g931_1 gnd 1.189032f
C2  g931_0 gnd 1.189032f
R1 g931_0 g931_1 1.271088
.ends

.subckt netg328 g328_0 g328_1 gnd
C1  g328_0 gnd 1.189032f
C2  g328_1 gnd 1.189032f
R1 g328_0 g328_1 1.271088
.ends

.subckt netx262 x262_1 x262_0 gnd
C1  x262_1 gnd 1.189032f
C2  x262_0 gnd 1.189032f
R1 x262_1 x262_0 1.271088
.ends

.subckt netg792 g792_0 g792_1 gnd
C1  g792_0 gnd 1.189032f
C2  g792_1 gnd 1.189032f
R1 g792_1 g792_0 1.271088
.ends

.subckt netg1821 g1821_1 g1821_0 gnd
C1  g1821_1 gnd 1.189032f
C2  g1821_0 gnd 1.189032f
R1 g1821_1 g1821_0 1.271088
.ends

.subckt netg1144 g1144_0 g1144_1 gnd
C1  g1144_0 gnd 1.189032f
C2  g1144_1 gnd 1.189032f
R1 g1144_1 g1144_0 1.271088
.ends

.subckt netg1263 g1263_0 g1263_1 gnd
C1  g1263_0 gnd 1.189032f
C2  g1263_1 gnd 1.189032f
R1 g1263_1 g1263_0 1.271088
.ends

.subckt netg1316 g1316_0 g1316_1 gnd
C1  g1316_0 gnd 1.189032f
C2  g1316_1 gnd 1.189032f
R1 g1316_0 g1316_1 1.271088
.ends

.subckt netg1322 g1322_0 g1322_1 gnd
C1  g1322_0 gnd 1.189032f
C2  g1322_1 gnd 1.189032f
R1 g1322_0 g1322_1 1.271088
.ends

.subckt netg712 g712_1 g712_0 gnd
C1  g712_1 gnd 1.189032f
C2  g712_0 gnd 1.189032f
R1 g712_1 g712_0 1.271088
.ends

.subckt netg1774 g1774_1 g1774_0 gnd
C1  g1774_1 gnd 1.189032f
C2  g1774_0 gnd 1.189032f
R1 g1774_1 g1774_0 1.271088
.ends

.subckt netg1199 g1199_0 g1199_1 gnd
C1  g1199_0 gnd 1.189032f
C2  g1199_1 gnd 1.189032f
R1 g1199_1 g1199_0 1.271088
.ends

.subckt netg1865 g1865_0 g1865_1 gnd
C1  g1865_0 gnd 1.189032f
C2  g1865_1 gnd 1.189032f
R1 g1865_0 g1865_1 1.271088
.ends

.subckt netx441 x441_0 x441_1 gnd
C1  x441_0 gnd 1.189032f
C2  x441_1 gnd 1.189032f
R1 x441_0 x441_1 1.271088
.ends

.subckt netg894 g894_1 g894_0 gnd
C1  g894_1 gnd 1.189032f
C2  g894_0 gnd 1.189032f
R1 g894_1 g894_0 1.271088
.ends

.subckt netx231 x231_1 x231_0 gnd
C1  x231_1 gnd 1.189032f
C2  x231_0 gnd 1.189032f
R1 x231_0 x231_1 1.271088
.ends

.subckt netx222 x222_0 x222_1 gnd
C1  x222_0 gnd 1.189032f
C2  x222_1 gnd 1.189032f
R1 x222_1 x222_0 1.271088
.ends

.subckt netg1458 g1458_1 g1458_0 gnd
C1  g1458_1 gnd 1.189032f
C2  g1458_0 gnd 1.189032f
R1 g1458_0 g1458_1 1.271088
.ends

.subckt netg1354 g1354_0 g1354_1 gnd
C1  g1354_0 gnd 1.189032f
C2  g1354_1 gnd 1.189032f
C3 1 gnd 1.189032f
R1 g1354_0 1 1.271088
R2 g1354_1 1 1.271088
.ends

.subckt netg1068 g1068_1 g1068_0 gnd
C1  g1068_1 gnd 1.189032f
C2  g1068_0 gnd 1.189032f
C3 1 gnd 1.189032f
R1 g1068_0 1 1.271088
R2 g1068_1 1 1.271088
.ends

.subckt netg238 g238_2 g238_0 g238_1 gnd
C1  g238_2 gnd 1.189032f
C2  g238_0 gnd 1.189032f
C3  g238_1 gnd 1.189032f
R1 g238_2 g238_0 1.271088
R2 g238_1 g238_2 1.271088
.ends

.subckt netg1469 g1469_1 g1469_0 gnd
C1  g1469_1 gnd 1.189032f
C2  g1469_0 gnd 1.189032f
C3 1 gnd 1.189032f
R1 1 g1469_0 1.271088
R2 g1469_1 1 1.271088
.ends

.subckt netg316 g316_1 g316_0 gnd
C1  g316_1 gnd 1.189032f
C2  g316_0 gnd 1.189032f
C3 1 gnd 1.189032f
R1 g316_0 1 1.271088
R2 1 g316_1 1.271088
.ends

.subckt netx11 x11_0 x11_1 gnd
C1  x11_0 gnd 1.189032f
C2  x11_1 gnd 1.189032f
C3 1 gnd 1.189032f
R1 x11_0 1 1.271088
R2 1 x11_1 1.271088
.ends

.subckt netg806 g806_0 g806_1 gnd
C1  g806_0 gnd 1.189032f
C2  g806_1 gnd 1.189032f
C3 1 gnd 1.189032f
R1 1 g806_0 1.271088
R2 g806_1 1 1.271088
.ends

.subckt netg1114 g1114_0 g1114_1 gnd
C1  g1114_0 gnd 1.189032f
C2  g1114_1 gnd 1.189032f
C3 1 gnd 1.189032f
R1 1 g1114_0 1.271088
R2 g1114_1 1 1.271088
.ends

.subckt netg1856 g1856_0 g1856_1 gnd
C1  g1856_0 gnd 1.189032f
C2  g1856_1 gnd 1.189032f
C3 1 gnd 1.189032f
R1 g1856_0 1 1.271088
R2 1 g1856_1 1.271088
.ends

.subckt netg1759 g1759_1 g1759_0 gnd
C1  g1759_1 gnd 1.189032f
C2  g1759_0 gnd 1.189032f
C3 1 gnd 1.189032f
R1 g1759_0 1 1.271088
R2 1 g1759_1 1.271088
.ends

.subckt netg831 g831_2 g831_1 gnd
C1  g831_2 gnd 1.189032f
C2  g831_1 gnd 1.189032f
C3 1 gnd 1.189032f
R1 g831_1 1 1.271088
R2 1 g831_2 1.271088
.ends

.subckt netg1819 g1819_1 g1819_0 gnd
C1  g1819_1 gnd 1.189032f
C2  g1819_0 gnd 1.189032f
C3 1 gnd 1.189032f
R1 g1819_0 1 1.271088
R2 1 g1819_1 1.271088
.ends

.subckt netg1103 g1103_0 g1103_1 gnd
C1  g1103_0 gnd 1.189032f
C2  g1103_1 gnd 1.189032f
C3 1 gnd 1.189032f
R1 g1103_0 1 1.271088
R2 g1103_1 1 1.271088
.ends

.subckt netg344 g344_2 g344_1 g344_0 gnd
C1  g344_2 gnd 1.189032f
C2  g344_1 gnd 1.189032f
C3  g344_0 gnd 1.189032f
R1 g344_1 g344_0 1.271088
R2 g344_2 g344_1 1.271088
.ends

.subckt netg726 g726_0 g726_1 gnd
C1  g726_0 gnd 1.189032f
C2  g726_1 gnd 1.189032f
C3 1 gnd 1.189032f
R1 g726_0 1 1.271088
R2 g726_1 1 1.271088
.ends

.subckt netg395 g395_2 g395_1 g395_0 gnd
C1  g395_2 gnd 1.189032f
C2  g395_1 gnd 1.189032f
C3  g395_0 gnd 1.189032f
R1 g395_0 g395_1 1.271088
R2 g395_2 g395_0 1.271088
.ends

.subckt netg1778 g1778_1 g1778_0 gnd
C1  g1778_1 gnd 1.189032f
C2  g1778_0 gnd 1.189032f
C3 1 gnd 1.189032f
R1 g1778_0 1 1.271088
R2 1 g1778_1 1.271088
.ends

.subckt netg1132 g1132_0 g1132_2 gnd
C1  g1132_0 gnd 1.189032f
C2  g1132_2 gnd 1.189032f
C3 1 gnd 1.189032f
R1 g1132_0 1 1.271088
R2 1 g1132_2 1.271088
.ends

.subckt netg1881 g1881_0 g1881_1 gnd
C1  g1881_0 gnd 1.189032f
C2  g1881_1 gnd 1.189032f
C3 1 gnd 1.189032f
R1 1 g1881_0 1.271088
R2 g1881_1 1 1.271088
.ends

.subckt netg1353 g1353_0 g1353_1 gnd
C1  g1353_0 gnd 1.189032f
C2  g1353_1 gnd 1.189032f
C3 1 gnd 1.189032f
R1 g1353_0 1 1.271088
R2 1 g1353_1 1.271088
.ends

.subckt netg1779 g1779_0 g1779_1 gnd
C1  g1779_0 gnd 1.189032f
C2  g1779_1 gnd 1.189032f
C3 1 gnd 1.189032f
R1 1 g1779_0 1.271088
R2 g1779_1 1 1.271088
.ends

.subckt netg1066 g1066_1 g1066_0 gnd
C1  g1066_1 gnd 1.189032f
C2  g1066_0 gnd 1.189032f
C3 1 gnd 1.189032f
R1 1 g1066_0 1.271088
R2 g1066_1 1 1.271088
.ends

.subckt netg993 g993_0 g993_1 gnd
C1  g993_0 gnd 1.189032f
C2  g993_1 gnd 1.189032f
C3 1 gnd 1.189032f
R1 g993_0 1 1.271088
R2 1 g993_1 1.271088
.ends

.subckt netg404 g404_1 g404_0 g404_2 gnd
C1  g404_1 gnd 1.189032f
C2  g404_0 gnd 1.189032f
C3  g404_2 gnd 1.189032f
R1 g404_1 g404_0 1.271088
R2 g404_2 g404_1 1.271088
.ends

.subckt netg612 g612_2 g612_0 g612_1 gnd
C1  g612_2 gnd 1.189032f
C2  g612_0 gnd 1.189032f
C3  g612_1 gnd 1.189032f
R1 g612_0 g612_1 1.271088
R2 g612_2 g612_0 1.271088
.ends

.subckt netg1028 g1028_0 g1028_2 gnd
C1  g1028_0 gnd 1.189032f
C2  g1028_2 gnd 1.189032f
C3 1 gnd 1.189032f
R1 g1028_0 1 1.271088
R2 1 g1028_2 1.271088
.ends

.subckt netx351 x351_0 x351_1 gnd
C1  x351_0 gnd 1.189032f
C2  x351_1 gnd 1.189032f
C3 1 gnd 1.189032f
R1 x351_0 1 1.271088
R2 1 x351_1 1.271088
.ends

.subckt netg1267 g1267_1 g1267_0 gnd
C1  g1267_1 gnd 1.189032f
C2  g1267_0 gnd 1.189032f
C3 1 gnd 1.189032f
R1 1 g1267_0 1.271088
R2 g1267_1 1 1.271088
.ends

.subckt netg850 g850_0 g850_1 gnd
C1  g850_0 gnd 1.189032f
C2  g850_1 gnd 1.189032f
C3 1 gnd 1.189032f
R1 g850_0 1 1.271088
R2 g850_1 1 1.271088
.ends

.subckt netg1472 g1472_0 g1472_1 gnd
C1  g1472_0 gnd 1.189032f
C2  g1472_1 gnd 1.189032f
C3 1 gnd 1.189032f
R1 1 g1472_0 1.271088
R2 g1472_1 1 1.271088
.ends

.subckt netg585 g585_1 g585_0 gnd
C1  g585_1 gnd 1.189032f
C2  g585_0 gnd 1.189032f
C3 1 gnd 1.189032f
R1 g585_0 1 1.271088
R2 1 g585_1 1.271088
.ends

.subckt netg1772 g1772_0 g1772_1 gnd
C1  g1772_0 gnd 1.189032f
C2  g1772_1 gnd 1.189032f
C3 1 gnd 1.189032f
R1 g1772_0 1 1.271088
R2 1 g1772_1 1.271088
.ends

.subckt netg1860 g1860_1 g1860_0 gnd
C1  g1860_1 gnd 1.189032f
C2  g1860_0 gnd 1.189032f
C3 1 gnd 1.189032f
R1 1 g1860_0 1.271088
R2 g1860_1 1 1.271088
.ends

.subckt netg636 g636_1 g636_0 gnd